NCGC00181306-02
     RDKit          2D

 58 63  0  0  1  0  0  0  0  0999 V2000
    8.8793   -2.5726    0.0000 C   0  0  0  0  0  0  0  0  0  0  0  0
    9.6174   -3.8209    0.0000 C   0  0  0  0  0  0  0  0  0  0  0  0
    6.9905   -3.5930    0.0000 C   0  0  0  0  0  0  0  0  0  0  0  0
    8.8793   -3.3976    0.0000 C   0  0  0  0  0  0  0  0  0  0  0  0
    6.9905   -2.1601    0.0000 C   0  0  0  0  0  0  0  0  0  0  0  0
    7.4139   -2.8874    0.0000 C   0  0  0  0  0  0  0  0  0  0  0  0
    8.4233   -1.7802    0.0000 C   0  0  0  0  0  0  0  0  0  0  0  0
    8.0217   -4.2660    0.0000 C   0  0  0  0  0  0  0  0  0  0  0  0
    7.5984   -1.7802    0.0000 C   0  0  0  0  0  0  0  0  0  0  0  0
    6.1547   -2.1601    0.0000 C   0  0  0  0  0  0  0  0  0  0  0  0
    6.1656   -3.5930    0.0000 C   0  0  0  0  0  0  0  0  0  0  0  0
    5.7314   -2.8874    0.0000 C   0  0  0  0  0  0  0  0  0  0  0  0
    4.1900   -2.4749    0.0000 C   0  0  0  0  0  0  0  0  0  0  0  0
    9.6174   -2.1492    0.0000 C   0  0  0  0  0  0  0  0  0  0  0  0
    3.4735   -2.8874    0.0000 C   0  0  0  0  0  0  0  0  0  0  0  0
   10.3339   -3.3976    0.0000 C   0  0  0  0  0  0  0  0  0  0  0  0
    2.0299   -2.9091    0.0000 N   0  0  0  0  0  0  0  0  0  0  0  0
    8.0217   -5.0909    0.0000 O   0  0  0  0  0  0  0  0  0  0  0  0
    2.7355   -2.4749    0.0000 C   0  0  0  0  0  0  0  0  0  0  0  0
    2.0299   -3.7232    0.0000 C   0  0  0  0  0  0  0  0  0  0  0  0
    7.3922   -5.6011    0.0000 C   0  0  0  0  0  0  0  0  0  0  0  0
    4.8955   -2.8874    0.0000 O   0  0  0  0  0  0  0  0  0  0  0  0
   10.0733   -4.4831    0.0000 C   0  0  0  0  0  0  0  0  0  0  0  0
   10.3339   -2.5726    0.0000 C   0  0  0  0  0  0  0  0  0  0  0  0
    9.4329   -4.3962    0.0000 O   0  0  0  0  0  0  0  0  0  0  0  0
   10.8549   -3.9621    0.0000 O   0  0  0  0  0  0  0  0  0  0  0  0
    7.1533   -1.0638    0.0000 O   0  0  0  0  0  0  0  0  0  0  0  0
    8.9878   -4.8521    0.0000 C   0  0  0  0  0  0  0  0  0  0  0  0
    8.8467   -1.1615    0.0000 O   0  0  0  0  0  0  0  0  0  0  0  0
    4.1900   -1.6391    0.0000 O   0  0  0  0  0  0  0  0  0  0  0  0
    2.6920   -4.1791    0.0000 O   0  0  0  0  0  0  0  0  0  0  0  0
    6.6540   -5.2103    0.0000 O   0  0  0  0  0  0  0  0  0  0  0  0
    6.6323   -4.2117    0.0000 O   0  0  0  0  0  0  0  0  0  0  0  0
    1.4112   -4.1357    0.0000 O   0  0  0  0  0  0  0  0  0  0  0  0
    7.3922   -6.3501    0.0000 C   0  0  0  0  0  0  0  0  0  0  0  0
    2.7355   -1.6391    0.0000 C   0  0  0  0  0  0  0  0  0  0  0  0
    8.4668   -4.5808    0.0000 O   0  0  0  0  0  0  0  0  0  0  0  0
    9.0530   -1.6065    0.0000 C   0  0  0  0  0  0  0  0  0  0  0  0
    3.4735   -3.7232    0.0000 O   0  0  0  0  0  0  0  0  0  0  0  0
   10.0407   -1.3677    0.0000 O   0  0  0  0  0  0  0  0  0  0  0  0
    7.7612   -2.3338    0.0000 C   0  0  0  0  0  0  0  0  0  0  0  0
    7.7178   -3.3433    0.0000 C   0  0  0  0  0  0  0  0  0  0  0  0
    5.7314   -1.4437    0.0000 C   0  0  0  0  0  0  0  0  0  0  0  0
    8.9878   -5.4383    0.0000 C   0  0  0  0  0  0  0  0  0  0  0  0
    0.7164   -3.7232    0.0000 C   0  0  0  0  0  0  0  0  0  0  0  0
    6.6866   -6.7626    0.0000 C   0  0  0  0  0  0  0  0  0  0  0  0
    8.0869   -6.7626    0.0000 C   0  0  0  0  0  0  0  0  0  0  0  0
    3.4735   -1.2266    0.0000 C   0  0  0  0  0  0  0  0  0  0  0  0
    2.0299   -1.2266    0.0000 C   0  0  0  0  0  0  0  0  0  0  0  0
    3.4735   -0.4016    0.0000 C   0  0  0  0  0  0  0  0  0  0  0  0
    6.6866   -7.5767    0.0000 C   0  0  0  0  0  0  0  0  0  0  0  0
    2.0299   -0.4016    0.0000 C   0  0  0  0  0  0  0  0  0  0  0  0
    8.0869   -7.5767    0.0000 C   0  0  0  0  0  0  0  0  0  0  0  0
    7.3922   -7.9892    0.0000 C   0  0  0  0  0  0  0  0  0  0  0  0
    2.7355    0.0000    0.0000 C   0  0  0  0  0  0  0  0  0  0  0  0
    0.0000   -4.1249    0.0000 C   0  0  0  0  0  0  0  0  0  0  0  0
    0.6947   -2.8983    0.0000 C   0  0  0  0  0  0  0  0  0  0  0  0
    0.7056   -4.5482    0.0000 C   0  0  0  0  0  0  0  0  0  0  0  0
  1  4  1  0
  1  7  1  0
  1 14  1  0
  1 38  1  1
  2  4  1  0
  2 23  1  0
  2 25  1  6
  2 16  1  0
  3  8  1  0
  3 11  1  0
  3 33  1  1
  3  6  1  0
  4  8  1  1
  5  9  1  0
  5  6  1  0
  5 10  2  0
  6 41  1  0
  6 42  1  0
  7  9  1  0
  7 29  2  0
  8 18  1  6
  9 27  1  1
 10 12  1  0
 10 43  1  0
 11 12  1  0
 12 22  1  6
 13 22  1  0
 13 15  1  0
 13 30  2  0
 14 24  1  0
 14 40  1  1
 15 19  1  0
 15 39  1  6
 16 24  1  1
 16 26  1  0
 19 17  1  1
 17 20  1  0
 18 21  1  0
 19 36  1  0
 20 31  2  0
 20 34  1  0
 21 32  2  0
 21 35  1  0
 23 26  1  0
 25 28  1  0
 28 37  2  0
 28 44  1  0
 34 45  1  0
 35 46  2  0
 35 47  1  0
 36 48  2  0
 36 49  1  0
 45 56  1  0
 45 57  1  0
 45 58  1  0
 46 51  1  0
 47 53  2  0
 48 50  1  0
 49 52  2  0
 50 55  2  0
 51 54  2  0
 52 55  1  0
 53 54  1  0
M  END
>  <Formula>  (1) 
C43H53NO14

>  <FW>  (1) 
807.8792

>  <DSSTox_CID>  (1) 
20464

>  <NR-AR>  (1) 
0

>  <NR-ER>  (1) 
0

>  <NR-ER-LBD>  (1) 
0

>  <NR-AhR>  (1) 
0

>  <SR-ATAD5>  (1) 
0

>  <SR-MMP>  (1) 
1

>  <SR-p53>  (1) 
1

$$$$
NCGC00163700-01
     RDKit          2D

 60 68  0  0  1  0  0  0  0  0999 V2000
    3.9810   -1.9471    0.0000 C   0  0  0  0  0  0  0  0  0  0  0  0
    3.9810   -2.7665    0.0000 C   0  0  0  0  0  0  0  0  0  0  0  0
    3.2774   -1.5326    0.0000 C   0  0  0  0  0  0  0  0  0  0  0  0
    3.2774   -3.1809    0.0000 C   0  0  0  0  0  0  0  0  0  0  0  0
    2.5640   -1.9471    0.0000 C   0  0  0  0  0  0  0  0  0  0  0  0
    2.5640   -2.7665    0.0000 C   0  0  0  0  0  0  0  0  0  0  0  0
    4.7039   -1.5326    0.0000 C   0  0  0  0  0  0  0  0  0  0  0  0
    4.7039   -0.7037    0.0000 C   0  0  0  0  0  0  0  0  0  0  0  0
    3.2774   -0.7037    0.0000 N   0  0  0  0  0  0  0  0  0  0  0  0
    3.9810   -0.2892    0.0000 C   0  0  0  0  0  0  0  0  0  0  0  0
    1.2435   -1.0024    0.0000 C   0  0  0  0  0  0  0  0  0  0  0  0
    1.6483   -1.7158    0.0000 C   0  0  0  0  0  0  0  0  0  0  0  0
    0.4145   -1.0024    0.0000 C   0  0  0  0  0  0  0  0  0  0  0  0
    1.2435   -2.4291    0.0000 C   0  0  0  0  0  0  0  0  0  0  0  0
    0.0000   -1.7158    0.0000 C   0  0  0  0  0  0  0  0  0  0  0  0
    0.4145   -2.4291    0.0000 C   0  0  0  0  0  0  0  0  0  0  0  0
    1.8122   -3.0845    0.0000 N   0  0  0  0  0  0  0  0  0  0  0  0
    2.3230   -0.5494    0.0000 C   0  0  0  0  0  0  0  0  0  0  0  0
    1.9471   -1.3784    0.0000 C   0  0  0  0  0  0  0  0  0  0  0  0
    2.8532   -3.8846    0.0000 C   0  0  0  0  0  0  0  0  0  0  0  0
    2.0339   -3.8846    0.0000 O   0  0  0  0  0  0  0  0  0  0  0  0
    3.2677   -4.5979    0.0000 O   0  0  0  0  0  0  0  0  0  0  0  0
    2.8339   -5.3112    0.0000 C   0  0  0  0  0  0  0  0  0  0  0  0
    5.1184    0.0000    0.0000 C   0  0  0  0  0  0  0  0  0  0  0  0
    5.5233   -0.7037    0.0000 O   0  0  0  0  0  0  0  0  0  0  0  0
    5.9474    0.0000    0.0000 C   0  0  0  0  0  0  0  0  0  0  0  0
    7.9909   -6.0149    0.0000 C   0  0  0  0  0  0  0  0  0  0  0  0
    7.9909   -6.8438    0.0000 C   0  0  0  0  0  0  0  0  0  0  0  0
    7.2776   -5.6004    0.0000 C   0  0  0  0  0  0  0  0  0  0  0  0
    7.2776   -7.2487    0.0000 C   0  0  0  0  0  0  0  0  0  0  0  0
    6.5643   -6.0149    0.0000 C   0  0  0  0  0  0  0  0  0  0  0  0
    6.5643   -6.8438    0.0000 C   0  0  0  0  0  0  0  0  0  0  0  0
    8.7138   -5.6004    0.0000 C   0  0  0  0  0  0  0  0  0  0  0  0
    8.7138   -4.7714    0.0000 C   0  0  0  0  0  0  0  0  0  0  0  0
    7.2776   -4.7714    0.0000 N   0  0  0  0  0  0  0  0  0  0  0  0
    7.9909   -4.3666    0.0000 C   0  0  0  0  0  0  0  0  0  0  0  0
    5.2534   -5.0798    0.0000 C   0  0  0  0  0  0  0  0  0  0  0  0
    5.6582   -5.7931    0.0000 C   0  0  0  0  0  0  0  0  0  0  0  0
    4.4147   -5.0798    0.0000 C   0  0  0  0  0  0  0  0  0  0  0  0
    5.2341   -6.5065    0.0000 C   0  0  0  0  0  0  0  0  0  0  0  0
    4.0099   -5.7931    0.0000 C   0  0  0  0  0  0  0  0  0  0  0  0
    4.4147   -6.5065    0.0000 C   0  0  0  0  0  0  0  0  0  0  0  0
    5.8221   -7.1812    0.0000 N   0  0  0  0  0  0  0  0  0  0  0  0
    6.3329   -4.6268    0.0000 C   0  0  0  0  0  0  0  0  0  0  0  0
    5.9570   -5.4558    0.0000 C   0  0  0  0  0  0  0  0  0  0  0  0
    7.6921   -7.9716    0.0000 O   0  0  0  0  0  0  0  0  0  0  0  0
    6.8631   -7.9523    0.0000 C   0  0  0  0  0  0  0  0  0  0  0  0
    6.0437   -7.9523    0.0000 O   0  0  0  0  0  0  0  0  0  0  0  0
    7.2583   -8.6752    0.0000 O   0  0  0  0  0  0  0  0  0  0  0  0
    8.0969   -8.6752    0.0000 C   0  0  0  0  0  0  0  0  0  0  0  0
    9.4271   -6.0149    0.0000 C   0  0  0  0  0  0  0  0  0  0  0  0
    8.6945   -6.4293    0.0000 C   0  0  0  0  0  0  0  0  0  0  0  0
    8.4054   -7.5475    0.0000 O   0  0  0  0  0  0  0  0  0  0  0  0
    9.2343   -7.5475    0.0000 C   0  0  0  0  0  0  0  0  0  0  0  0
    9.6392   -8.2704    0.0000 C   0  0  0  0  0  0  0  0  0  0  0  0
    9.6392   -6.8438    0.0000 O   0  0  0  0  0  0  0  0  0  0  0  0
    5.3980   -7.8752    0.0000 C   0  0  0  0  0  0  0  0  0  0  0  0
    4.5786   -7.8752    0.0000 O   0  0  0  0  0  0  0  0  0  0  0  0
    3.1809   -5.7931    0.0000 O   0  0  0  0  0  0  0  0  0  0  0  0
    2.7665   -6.5065    0.0000 C   0  0  0  0  0  0  0  0  0  0  0  0
  1  2  1  6
  1  7  1  0
  1  3  1  0
  2  4  1  0
  9  3  1  0
  4  6  1  0
  4 39  1  0
  4 20  1  1
  5  6  2  0
  5 12  1  0
  5 19  1  0
  6 17  1  0
  7  8  1  0
  8 10  1  0
  8 24  1  0
  8 25  1  1
  9 10  1  6
  9 18  1  0
 11 12  2  0
 11 13  1  0
 12 14  1  0
 13 15  2  0
 14 16  2  0
 14 17  1  0
 15 16  1  0
 18 19  1  0
 20 21  2  0
 20 22  1  0
 22 23  1  0
 24 26  1  0
 27 28  1  0
 27 33  1  0
 27 29  1  0
 27 52  1  6
 28 30  1  0
 28 53  1  1
 29 35  1  1
 29 31  1  0
 30 32  1  0
 30 46  1  1
 30 47  1  0
 31 32  1  0
 31 38  1  0
 31 45  1  1
 32 43  1  6
 33 34  2  0
 34 36  1  0
 35 36  1  0
 35 44  1  0
 37 38  2  0
 37 39  1  0
 38 40  1  0
 39 41  2  0
 40 42  2  0
 40 43  1  0
 41 42  1  0
 41 59  1  0
 43 57  1  0
 44 45  1  0
 47 48  2  0
 47 49  1  0
 49 50  1  0
 51 52  1  0
 53 54  1  0
 54 55  1  0
 54 56  2  0
 57 58  2  0
 59 60  1  0
M  END
>  <Formula>  (2) 
C46H56N4O10

>  <FW>  (2) 
824.9576

>  <DSSTox_CID>  (2) 
12278

>  <NR-Aromatase>  (2) 
0

>  <NR-AR>  (2) 
0

>  <SR-ATAD5>  (2) 
1

$$$$
NCGC00253967-01
     RDKit          2D

 36 40  0  0  1  0  0  0  0  0999 V2000
    8.8110   -2.5852    0.0000 C   0  0  0  0  0  0  0  0  0  0  0  0
    9.7004   -3.1544    0.0000 C   0  0  0  0  0  0  0  0  0  0  0  0
    8.5501   -3.3560    0.0000 O   0  0  0  0  0  0  0  0  0  0  0  0
    1.2570   -3.2848    0.0000 N   0  0  0  0  0  0  0  0  0  0  0  0
    8.1587   -2.1109    0.0000 O   0  0  0  0  0  0  0  0  0  0  0  0
    2.9173   -3.2848    0.0000 N   0  0  0  0  0  0  0  0  0  0  0  0
    9.7004   -3.9845    0.0000 C   0  0  0  0  0  0  0  0  0  0  0  0
    9.4276   -1.2689    0.0000 N   0  0  0  0  0  0  0  0  0  0  0  0
    9.0126    0.0000    0.0000 N   0  0  0  0  0  0  0  0  0  0  0  0
    0.4150   -3.2848    0.0000 C   0  0  0  0  0  0  0  0  0  0  0  0
    9.4276   -2.0990    0.0000 C   0  0  0  0  0  0  0  0  0  0  0  0
   10.4119   -2.7394    0.0000 C   0  0  0  0  0  0  0  0  0  0  0  0
    8.7517   -0.7827    0.0000 C   0  0  0  0  0  0  0  0  0  0  0  0
   10.4119   -4.3996    0.0000 C   0  0  0  0  0  0  0  0  0  0  0  0
    3.7355   -3.2848    0.0000 C   0  0  0  0  0  0  0  0  0  0  0  0
    7.7319   -3.3560    0.0000 C   0  0  0  0  0  0  0  0  0  0  0  0
    9.8427    0.0000    0.0000 C   0  0  0  0  0  0  0  0  0  0  0  0
    1.6958   -2.5615    0.0000 C   0  0  0  0  0  0  0  0  0  0  0  0
    1.6602   -3.9845    0.0000 C   0  0  0  0  0  0  0  0  0  0  0  0
    2.4903   -3.9845    0.0000 C   0  0  0  0  0  0  0  0  0  0  0  0
    2.5140   -2.5615    0.0000 C   0  0  0  0  0  0  0  0  0  0  0  0
   10.0917   -0.7827    0.0000 C   0  0  0  0  0  0  0  0  0  0  0  0
    0.0356   -2.5615    0.0000 O   0  0  0  0  0  0  0  0  0  0  0  0
    7.5066   -2.5734    0.0000 C   0  0  0  0  0  0  0  0  0  0  0  0
    4.1506   -3.9845    0.0000 C   0  0  0  0  0  0  0  0  0  0  0  0
    4.1743   -2.5615    0.0000 C   0  0  0  0  0  0  0  0  0  0  0  0
   11.1353   -3.9845    0.0000 C   0  0  0  0  0  0  0  0  0  0  0  0
    8.9770   -4.3996    0.0000 Cl  0  0  0  0  0  0  0  0  0  0  0  0
    6.2140   -3.2848    0.0000 O   0  0  0  0  0  0  0  0  0  0  0  0
   11.1353   -3.1544    0.0000 C   0  0  0  0  0  0  0  0  0  0  0  0
    5.3838   -3.2848    0.0000 C   0  0  0  0  0  0  0  0  0  0  0  0
    6.9373   -3.7473    0.0000 C   0  0  0  0  0  0  0  0  0  0  0  0
    4.9807   -2.5615    0.0000 C   0  0  0  0  0  0  0  0  0  0  0  0
    4.9451   -3.9845    0.0000 C   0  0  0  0  0  0  0  0  0  0  0  0
   11.8587   -4.3996    0.0000 Cl  0  0  0  0  0  0  0  0  0  0  0  0
    0.0000   -3.9845    0.0000 C   0  0  0  0  0  0  0  0  0  0  0  0
  1  2  1  0
  1  3  1  0
  1  5  1  0
  1 11  1  1
  2  7  2  0
  2 12  1  0
  3 16  1  0
  4 18  1  0
  4 10  1  0
  4 19  1  0
  5 24  1  0
  6 15  1  0
  6 20  1  0
  6 21  1  0
  7 14  1  0
  7 28  1  0
  8 11  1  0
  8 13  1  0
  8 22  1  0
  9 13  2  0
  9 17  1  0
 10 23  2  0
 10 36  1  0
 12 30  2  0
 14 27  2  0
 15 25  2  0
 15 26  1  0
 16 32  1  1
 16 24  1  0
 17 22  2  0
 18 21  1  0
 19 20  1  0
 25 34  1  0
 26 33  2  0
 27 30  1  0
 27 35  1  0
 29 32  1  0
 29 31  1  0
 31 33  1  0
 31 34  2  0
M  END
>  <Formula>  (3) 
C26H28Cl2N4O4

>  <FW>  (3) 
531.4309

>  <DSSTox_CID>  (3) 
9879

>  <NR-AR>  (3) 
0

>  <NR-AhR>  (3) 
1

>  <SR-ARE>  (3) 
1

>  <SR-HSE>  (3) 
1

$$$$
NCGC00255136-01
     RDKit          2D

 28 29  0  0  0  0  0  0  0  0999 V2000
    4.2859   -2.6640    0.0000 C   0  0  0  0  0  0  0  0  0  0  0  0
    5.0012   -3.0751    0.0000 C   0  0  0  0  0  0  0  0  0  0  0  0
    3.5707   -3.0751    0.0000 C   0  0  0  0  0  0  0  0  0  0  0  0
    3.7622   -3.7059    0.0000 C   0  0  0  0  0  0  0  0  0  0  0  0
    3.0357   -4.1339    0.0000 O   0  0  0  0  0  0  0  0  0  0  0  0
    4.2859   -4.1339    0.0000 O   0  0  0  0  0  0  0  0  0  0  0  0
    5.0012   -3.8974    0.0000 C   0  0  0  0  0  0  0  0  0  0  0  0
    2.8554   -2.6640    0.0000 C   0  0  0  0  0  0  0  0  0  0  0  0
    1.7178   -3.3229    0.0000 C   0  0  0  0  0  0  0  0  0  0  0  0
    1.0025   -2.9117    0.0000 C   0  0  0  0  0  0  0  0  0  0  0  0
    0.2816   -3.3229    0.0000 C   0  0  0  0  0  0  0  0  0  0  0  0
    0.2816   -4.1508    0.0000 C   0  0  0  0  0  0  0  0  0  0  0  0
    1.0025   -4.5619    0.0000 C   0  0  0  0  0  0  0  0  0  0  0  0
    1.7178   -4.1508    0.0000 C   0  0  0  0  0  0  0  0  0  0  0  0
    2.8554   -4.8041    0.0000 N   0  0  0  0  0  0  0  0  0  0  0  0
    3.5707   -5.3222    0.0000 O   0  0  0  0  0  0  0  0  0  0  0  0
    2.2978   -5.6320    0.0000 O   0  0  0  0  0  0  0  0  0  0  0  0
    2.8554   -1.8361    0.0000 C   0  0  0  0  0  0  0  0  0  0  0  0
    2.1458   -1.4306    0.0000 C   0  0  0  0  0  0  0  0  0  0  0  0
    2.1458   -0.6082    0.0000 O   0  0  0  0  0  0  0  0  0  0  0  0
    1.4306   -1.8361    0.0000 O   0  0  0  0  0  0  0  0  0  0  0  0
    0.7152   -1.4306    0.0000 C   0  0  0  0  0  0  0  0  0  0  0  0
    0.7152   -0.6082    0.0000 C   0  0  0  0  0  0  0  0  0  0  0  0
    0.0000   -0.1915    0.0000 C   0  0  0  0  0  0  0  0  0  0  0  0
    1.2447    0.0000    0.0000 C   0  0  0  0  0  0  0  0  0  0  0  0
    3.5707   -1.4306    0.0000 C   0  0  0  0  0  0  0  0  0  0  0  0
    3.5707   -0.6082    0.0000 C   0  0  0  0  0  0  0  0  0  0  0  0
    4.2859   -1.8361    0.0000 N   0  0  0  0  0  0  0  0  0  0  0  0
  1  2  1  0
  1  3  2  0
  1 28  1  0
  3  4  1  0
  3  8  1  0
  4  5  2  0
  4  6  1  0
  6  7  1  0
  8  9  1  0
  8 18  1  0
  9 10  2  0
  9 14  1  0
 10 11  1  0
 11 12  2  0
 12 13  1  0
 13 14  2  0
 14 15  1  0
 15 16  1  0
 15 17  2  0
 18 19  1  0
 18 26  2  0
 19 20  2  0
 19 21  1  0
 21 22  1  0
 22 23  1  0
 23 24  1  0
 23 25  1  0
 26 27  1  0
 26 28  1  0
M  CHG  2  15   1  16  -1
M  END
>  <Formula>  (4) 
C20H24N2O6

>  <FW>  (4) 
388.4144

>  <DSSTox_CID>  (4) 
3371

>  <NR-AR>  (4) 
0

>  <NR-ER-LBD>  (4) 
0

>  <NR-AhR>  (4) 
1

>  <SR-HSE>  (4) 
1

$$$$
NCGC00188346-01
     RDKit          2D

 23 26  0  0  0  0  0  0  0  0999 V2000
    0.7167   -3.3025    0.0000 N   0  0  0  0  0  0  0  0  0  0  0  0
    0.7167   -4.1317    0.0000 C   0  0  0  0  0  0  0  0  0  0  0  0
    0.0000   -4.5392    0.0000 N   0  0  0  0  0  0  0  0  0  0  0  0
    0.0000   -5.3614    0.0000 C   0  0  0  0  0  0  0  0  0  0  0  0
    0.7167   -5.7830    0.0000 N   0  0  0  0  0  0  0  0  0  0  0  0
    1.4264   -5.3614    0.0000 C   0  0  0  0  0  0  0  0  0  0  0  0
    1.4264   -4.5392    0.0000 C   0  0  0  0  0  0  0  0  0  0  0  0
    2.2064   -4.2863    0.0000 C   0  0  0  0  0  0  0  0  0  0  0  0
    2.4664   -3.5063    0.0000 C   0  0  0  0  0  0  0  0  0  0  0  0
    1.9815   -2.8388    0.0000 C   0  0  0  0  0  0  0  0  0  0  0  0
    2.4664   -2.1712    0.0000 C   0  0  0  0  0  0  0  0  0  0  0  0
    3.2533   -2.4172    0.0000 C   0  0  0  0  0  0  0  0  0  0  0  0
    3.8717   -1.8691    0.0000 C   0  0  0  0  0  0  0  0  0  0  0  0
    3.6890   -1.0540    0.0000 C   0  0  0  0  0  0  0  0  0  0  0  0
    2.9090   -0.8081    0.0000 C   0  0  0  0  0  0  0  0  0  0  0  0
    2.7404    0.0000    0.0000 O   0  0  0  0  0  0  0  0  0  0  0  0
    2.2977   -1.3561    0.0000 C   0  0  0  0  0  0  0  0  0  0  0  0
    3.2533   -3.2463    0.0000 N   0  0  0  0  0  0  0  0  0  0  0  0
    2.6982   -4.9538    0.0000 N   0  0  0  0  0  0  0  0  0  0  0  0
    2.2064   -5.6213    0.0000 N   0  0  0  0  0  0  0  0  0  0  0  0
    2.4664   -6.4083    0.0000 C   0  0  0  0  0  0  0  0  0  0  0  0
    1.9112   -7.0267    0.0000 C   0  0  0  0  0  0  0  0  0  0  0  0
    3.2745   -6.5770    0.0000 C   0  0  0  0  0  0  0  0  0  0  0  0
  1  2  1  0
  2  3  2  0
  2  7  1  0
  3  4  1  0
  4  5  2  0
  5  6  1  0
  6  7  2  0
  6 20  1  0
  7  8  1  0
  8  9  1  0
  8 19  2  0
  9 10  2  0
  9 18  1  0
 10 11  1  0
 11 12  2  0
 11 17  1  0
 12 13  1  0
 12 18  1  0
 13 14  2  0
 14 15  1  0
 15 16  1  0
 15 17  2  0
 19 20  1  0
 20 21  1  0
 21 22  1  0
 21 23  1  0
M  END
>  <Formula>  (5) 
C16H16N6O

>  <FW>  (5) 
308.3378

>  <DSSTox_CID>  (5) 
28611

>  <NR-AR>  (5) 
0

>  <NR-ER-LBD>  (5) 
0

>  <NR-AhR>  (5) 
1

>  <SR-ATAD5>  (5) 
1

>  <SR-MMP>  (5) 
0

$$$$
NCGC00164545-01
     RDKit          2D

 33 34  0  0  0  0  0  0  0  0999 V2000
    2.8589   -3.5607    0.0000 C   0  0  0  0  0  0  0  0  0  0  0  0
    2.8589   -4.3824    0.0000 C   0  0  0  0  0  0  0  0  0  0  0  0
    3.5778   -4.8018    0.0000 N   0  0  0  0  0  0  0  0  0  0  0  0
    4.2797   -4.3824    0.0000 C   0  0  0  0  0  0  0  0  0  0  0  0
    4.2797   -3.5607    0.0000 C   0  0  0  0  0  0  0  0  0  0  0  0
    3.5778   -3.1413    0.0000 C   0  0  0  0  0  0  0  0  0  0  0  0
    4.9816   -3.1413    0.0000 C   0  0  0  0  0  0  0  0  0  0  0  0
    5.7005   -3.5521    0.0000 O   0  0  0  0  0  0  0  0  0  0  0  0
    4.9816   -2.3282    0.0000 O   0  0  0  0  0  0  0  0  0  0  0  0
    6.4024   -3.1413    0.0000 C   0  0  0  0  0  0  0  0  0  0  0  0
    7.1214   -3.5521    0.0000 C   0  0  0  0  0  0  0  0  0  0  0  0
    4.9816   -4.8018    0.0000 C   0  0  0  0  0  0  0  0  0  0  0  0
    2.1484   -3.1413    0.0000 C   0  0  0  0  0  0  0  0  0  0  0  0
    1.4294   -3.5521    0.0000 O   0  0  0  0  0  0  0  0  0  0  0  0
    2.1484   -2.3367    0.0000 O   0  0  0  0  0  0  0  0  0  0  0  0
    0.7275   -3.1413    0.0000 C   0  0  0  0  0  0  0  0  0  0  0  0
    0.0000   -3.5521    0.0000 C   0  0  0  0  0  0  0  0  0  0  0  0
    2.1484   -4.8018    0.0000 C   0  0  0  0  0  0  0  0  0  0  0  0
    2.8503   -0.4109    0.0000 C   0  0  0  0  0  0  0  0  0  0  0  0
    2.8503   -1.2582    0.0000 C   0  0  0  0  0  0  0  0  0  0  0  0
    3.5778   -1.6862    0.0000 C   0  0  0  0  0  0  0  0  0  0  0  0
    4.2968   -1.2582    0.0000 C   0  0  0  0  0  0  0  0  0  0  0  0
    4.2968   -0.4109    0.0000 C   0  0  0  0  0  0  0  0  0  0  0  0
    3.5778    0.0000    0.0000 C   0  0  0  0  0  0  0  0  0  0  0  0
    4.9987   -1.6776    0.0000 C   0  0  0  0  0  0  0  0  0  0  0  0
    5.7091   -1.2582    0.0000 C   0  0  0  0  0  0  0  0  0  0  0  0
    6.4110   -1.6776    0.0000 C   0  0  0  0  0  0  0  0  0  0  0  0
    7.1300   -1.2496    0.0000 O   0  0  0  0  0  0  0  0  0  0  0  0
    6.4110   -2.4908    0.0000 O   0  0  0  0  0  0  0  0  0  0  0  0
    7.8404   -1.6605    0.0000 C   0  0  0  0  0  0  0  0  0  0  0  0
    7.4467   -2.3624    0.0000 C   0  0  0  0  0  0  0  0  0  0  0  0
    8.5594   -2.0628    0.0000 C   0  0  0  0  0  0  0  0  0  0  0  0
    8.2512   -0.9501    0.0000 C   0  0  0  0  0  0  0  0  0  0  0  0
  1  6  1  0
  1 13  1  0
  1  2  2  0
  2 18  1  0
  2  3  1  0
  3  4  1  0
  4  5  2  0
  4 12  1  0
  5  6  1  0
  5  7  1  0
  6 21  1  0
  7  8  1  0
  7  9  2  0
  8 10  1  0
 10 11  1  0
 13 14  1  0
 13 15  2  0
 14 16  1  0
 16 17  1  0
 19 20  2  0
 19 24  1  0
 20 21  1  0
 21 22  2  0
 22 23  1  0
 22 25  1  0
 23 24  2  0
 25 26  2  0
 26 27  1  0
 27 28  1  0
 27 29  2  0
 28 30  1  0
 30 31  1  0
 30 32  1  0
 30 33  1  0
M  END
>  <Formula>  (6) 
C26H33NO6

>  <FW>  (6) 
455.5433

>  <DSSTox_CID>  (6) 
26429

>  <NR-Aromatase>  (6) 
1

>  <NR-AR>  (6) 
0

>  <NR-ER-LBD>  (6) 
1

>  <NR-PPAR-gamma>  (6) 
1

>  <NR-AhR>  (6) 
1

>  <SR-p53>  (6) 
1

$$$$
NCGC00168786-01
     RDKit          2D

 42 47  0  0  1  0  0  0  0  0999 V2000
    2.8366   -1.2329    0.0000 C   0  0  0  0  0  0  0  0  0  0  0  0
    2.8366   -0.3986    0.0000 C   0  0  0  0  0  0  0  0  0  0  0  0
    2.1414   -1.6501    0.0000 N   0  0  0  0  0  0  0  0  0  0  0  0
    4.2642   -3.6802    0.0000 C   0  0  0  0  0  0  0  0  0  0  0  0
    4.2642   -2.8645    0.0000 C   0  0  0  0  0  0  0  0  0  0  0  0
    3.5597   -1.6501    0.0000 C   0  0  0  0  0  0  0  0  0  0  0  0
    4.2550   -1.2329    0.0000 N   0  0  0  0  0  0  0  0  0  0  0  0
    4.9316   -2.4751    0.0000 C   0  0  0  0  0  0  0  0  0  0  0  0
    5.6640   -3.6802    0.0000 C   0  0  0  0  0  0  0  0  0  0  0  0
    7.1101   -3.6895    0.0000 C   0  0  0  0  0  0  0  0  0  0  0  0
    3.5597   -2.4751    0.0000 C   0  0  0  0  0  0  0  0  0  0  0  0
    1.4183   -0.3986    0.0000 C   0  0  0  0  0  0  0  0  0  0  0  0
    4.9687   -4.0881    0.0000 C   0  0  0  0  0  0  0  0  0  0  0  0
    1.4183   -1.2329    0.0000 C   0  0  0  0  0  0  0  0  0  0  0  0
    7.1101   -2.8830    0.0000 C   0  0  0  0  0  0  0  0  0  0  0  0
    7.1101   -1.2329    0.0000 C   0  0  0  0  0  0  0  0  0  0  0  0
    3.5597   -4.1344    0.0000 C   0  0  0  0  0  0  0  0  0  0  0  0
    6.3871   -4.1066    0.0000 O   0  0  0  0  0  0  0  0  0  0  0  0
    4.9316   -1.6501    0.0000 C   0  0  0  0  0  0  0  0  0  0  0  0
    7.8147   -1.6594    0.0000 C   0  0  0  0  0  0  0  0  0  0  0  0
    6.4056   -1.6594    0.0000 C   0  0  0  0  0  0  0  0  0  0  0  0
    5.6640   -2.8645    0.0000 C   0  0  0  0  0  0  0  0  0  0  0  0
    3.5319    0.0000    0.0000 C   0  0  0  0  0  0  0  0  0  0  0  0
    7.8147   -2.4844    0.0000 C   0  0  0  0  0  0  0  0  0  0  0  0
    6.4056   -2.4844    0.0000 C   0  0  0  0  0  0  0  0  0  0  0  0
    4.2550   -0.3986    0.0000 C   0  0  0  0  0  0  0  0  0  0  0  0
    7.8147   -4.1066    0.0000 O   0  0  0  0  0  0  0  0  0  0  0  0
    2.8552   -3.6988    0.0000 O   0  0  0  0  0  0  0  0  0  0  0  0
    7.1101   -0.4172    0.0000 O   0  0  0  0  0  0  0  0  0  0  0  0
    4.9687   -4.9224    0.0000 O   0  0  0  0  0  0  0  0  0  0  0  0
    3.5597   -4.9409    0.0000 O   0  0  0  0  0  0  0  0  0  0  0  0
    8.5470   -1.2329    0.0000 O   0  0  0  0  0  0  0  0  0  0  0  0
    5.7103   -1.2236    0.0000 O   0  0  0  0  0  0  0  0  0  0  0  0
    0.7231    0.0000    0.0000 C   0  0  0  0  0  0  0  0  0  0  0  0
    0.7231   -1.6501    0.0000 C   0  0  0  0  0  0  0  0  0  0  0  0
    7.8147    0.0000    0.0000 C   0  0  0  0  0  0  0  0  0  0  0  0
    5.6732   -5.3395    0.0000 C   0  0  0  0  0  0  0  0  0  0  0  0
    5.7103   -0.3430    0.0000 C   0  0  0  0  0  0  0  0  0  0  0  0
    4.2827   -5.3395    0.0000 C   0  0  0  0  0  0  0  0  0  0  0  0
    9.2700   -1.6501    0.0000 C   0  0  0  0  0  0  0  0  0  0  0  0
    0.0000   -0.3986    0.0000 C   0  0  0  0  0  0  0  0  0  0  0  0
    0.0000   -1.2329    0.0000 C   0  0  0  0  0  0  0  0  0  0  0  0
  1  2  2  0
  1  3  1  0
  1  6  1  0
  2 12  1  0
  2 23  1  0
  3 14  1  0
  4  5  1  0
  4 13  1  0
  4 17  1  1
  5 11  1  1
  5  8  1  0
  6  7  1  0
  6 11  1  6
  7 19  1  0
  7 26  1  0
  8 22  1  1
  8 19  1  0
  9 22  1  0
  9 18  1  1
  9 13  1  0
 10 18  1  0
 10 15  1  0
 10 27  2  0
 12 34  1  0
 12 14  2  0
 13 30  1  6
 14 35  1  0
 15 24  1  0
 15 25  2  0
 16 21  2  0
 16 29  1  0
 16 20  1  0
 17 28  2  0
 17 31  1  0
 20 24  2  0
 20 32  1  0
 21 25  1  0
 21 33  1  0
 23 26  1  0
 29 36  1  0
 30 37  1  0
 31 39  1  0
 32 40  1  0
 33 38  1  0
 34 41  2  0
 35 42  2  0
 41 42  1  0
M  END
>  <Formula>  (7) 
C32H38N2O8

>  <FW>  (7) 
578.6527

>  <DSSTox_CID>  (7) 
383

>  <NR-AR>  (7) 
0

>  <NR-ER-LBD>  (7) 
0

>  <NR-AhR>  (7) 
1

>  <SR-MMP>  (7) 
1

$$$$
NCGC00254304-01
     RDKit          2D

 23 25  0  0  0  0  0  0  0  0999 V2000
    2.8705   -2.0940    0.0000 C   0  0  0  0  0  0  0  0  0  0  0  0
    3.6953   -2.0940    0.0000 C   0  0  0  0  0  0  0  0  0  0  0  0
    2.6242   -1.3121    0.0000 C   0  0  0  0  0  0  0  0  0  0  0  0
    2.4636   -2.8116    0.0000 C   0  0  0  0  0  0  0  0  0  0  0  0
    3.9523   -1.3121    0.0000 N   0  0  0  0  0  0  0  0  0  0  0  0
    4.1130   -2.8116    0.0000 C   0  0  0  0  0  0  0  0  0  0  0  0
    3.2883   -0.8247    0.0000 C   0  0  0  0  0  0  0  0  0  0  0  0
    1.8369   -1.0496    0.0000 C   0  0  0  0  0  0  0  0  0  0  0  0
    2.8705   -3.5239    0.0000 C   0  0  0  0  0  0  0  0  0  0  0  0
    4.7396   -1.0496    0.0000 C   0  0  0  0  0  0  0  0  0  0  0  0
    3.6953   -3.5239    0.0000 C   0  0  0  0  0  0  0  0  0  0  0  0
    3.2883    0.0000    0.0000 O   0  0  0  0  0  0  0  0  0  0  0  0
    1.2210   -1.6066    0.0000 C   0  0  0  0  0  0  0  0  0  0  0  0
    1.6709   -0.2463    0.0000 O   0  0  0  0  0  0  0  0  0  0  0  0
    2.4636   -4.2415    0.0000 F   0  0  0  0  0  0  0  0  0  0  0  0
    4.9110   -0.2463    0.0000 N   0  0  0  0  0  0  0  0  0  0  0  0
    5.3555   -1.6066    0.0000 O   0  0  0  0  0  0  0  0  0  0  0  0
    4.1130   -4.2415    0.0000 Cl  0  0  0  0  0  0  0  0  0  0  0  0
    1.3121   -2.4207    0.0000 C   0  0  0  0  0  0  0  0  0  0  0  0
    0.4177   -1.4406    0.0000 S   0  0  0  0  0  0  0  0  0  0  0  0
    0.5570   -2.7634    0.0000 C   0  0  0  0  0  0  0  0  0  0  0  0
    0.0000   -2.1529    0.0000 C   0  0  0  0  0  0  0  0  0  0  0  0
    0.3856   -3.5667    0.0000 Cl  0  0  0  0  0  0  0  0  0  0  0  0
  1  2  1  0
  1  3  1  0
  1  4  2  0
  2  5  1  0
  2  6  2  0
  3  7  1  0
  3  8  1  0
  4  9  1  0
  5 10  1  0
  5  7  1  0
  6 11  1  0
  7 12  2  0
  8 13  1  0
  8 14  2  0
  9 15  1  0
  9 11  2  0
 10 16  1  0
 10 17  2  0
 11 18  1  0
 13 19  2  0
 13 20  1  0
 19 21  1  0
 20 22  1  0
 21 23  1  0
 21 22  2  0
M  END
>  <Formula>  (8) 
C14H7Cl2FN2O3S

>  <FW>  (8) 
373.1864

>  <DSSTox_CID>  (8) 
27304

>  <NR-AR>  (8) 
0

>  <NR-ER-LBD>  (8) 
0

>  <NR-AhR>  (8) 
1

>  <SR-ATAD5>  (8) 
0

>  <SR-p53>  (8) 
1

$$$$
NCGC00183024-01
     RDKit          2D

 60 64  0  0  0  0  0  0  0  0999 V2000
    3.5853   -6.2074    0.0000 N   0  0  0  0  0  0  0  0  0  0  0  0
    4.2916   -6.6034    0.0000 C   0  0  0  0  0  0  0  0  0  0  0  0
    4.2916   -7.4275    0.0000 C   0  0  0  0  0  0  0  0  0  0  0  0
    2.8790   -6.6034    0.0000 C   0  0  0  0  0  0  0  0  0  0  0  0
    2.8790   -7.4275    0.0000 C   0  0  0  0  0  0  0  0  0  0  0  0
    3.5853   -5.3405    0.0000 C   0  0  0  0  0  0  0  0  0  0  0  0
    7.1171   -2.4722    0.0000 C   0  0  0  0  0  0  0  0  0  0  0  0
    8.5298   -1.6482    0.0000 C   0  0  0  0  0  0  0  0  0  0  0  0
    8.5298   -2.4722    0.0000 N   0  0  0  0  0  0  0  0  0  0  0  0
    7.8234   -2.8575    0.0000 C   0  0  0  0  0  0  0  0  0  0  0  0
    4.9980   -7.8556    0.0000 C   0  0  0  0  0  0  0  0  0  0  0  0
    2.1726   -6.2074    0.0000 C   0  0  0  0  0  0  0  0  0  0  0  0
    9.9425   -6.6034    0.0000 N   0  0  0  0  0  0  0  0  0  0  0  0
    8.5298   -7.4275    0.0000 N   0  0  0  0  0  0  0  0  0  0  0  0
    2.8790   -4.9552    0.0000 C   0  0  0  0  0  0  0  0  0  0  0  0
    5.7044   -7.4275    0.0000 C   0  0  0  0  0  0  0  0  0  0  0  0
    2.1726   -7.8556    0.0000 C   0  0  0  0  0  0  0  0  0  0  0  0
    6.4107   -2.8575    0.0000 N   0  0  0  0  0  0  0  0  0  0  0  0
    8.5298   -4.9552    0.0000 C   0  0  0  0  0  0  0  0  0  0  0  0
    4.2916   -4.9552    0.0000 O   0  0  0  0  0  0  0  0  0  0  0  0
    7.1171   -1.6482    0.0000 O   0  0  0  0  0  0  0  0  0  0  0  0
    7.8234   -1.2522    0.0000 O   0  0  0  0  0  0  0  0  0  0  0  0
    9.2362   -1.2522    0.0000 C   0  0  0  0  0  0  0  0  0  0  0  0
    7.8234   -3.7244    0.0000 C   0  0  0  0  0  0  0  0  0  0  0  0
    5.7044   -6.6034    0.0000 O   0  0  0  0  0  0  0  0  0  0  0  0
    7.8234   -5.3405    0.0000 O   0  0  0  0  0  0  0  0  0  0  0  0
    2.8790   -4.1204    0.0000 C   0  0  0  0  0  0  0  0  0  0  0  0
    2.1726   -5.3405    0.0000 C   0  0  0  0  0  0  0  0  0  0  0  0
    4.9980   -6.2074    0.0000 C   0  0  0  0  0  0  0  0  0  0  0  0
    9.2362   -7.8556    0.0000 C   0  0  0  0  0  0  0  0  0  0  0  0
    9.9425   -7.4275    0.0000 C   0  0  0  0  0  0  0  0  0  0  0  0
    8.5298   -6.6034    0.0000 C   0  0  0  0  0  0  0  0  0  0  0  0
    9.2362   -6.2074    0.0000 C   0  0  0  0  0  0  0  0  0  0  0  0
    8.5298   -4.1204    0.0000 C   0  0  0  0  0  0  0  0  0  0  0  0
    1.4234   -7.4275    0.0000 C   0  0  0  0  0  0  0  0  0  0  0  0
    1.4234   -6.6034    0.0000 C   0  0  0  0  0  0  0  0  0  0  0  0
    1.4234   -4.1204    0.0000 C   0  0  0  0  0  0  0  0  0  0  0  0
    6.4107   -7.8556    0.0000 O   0  0  0  0  0  0  0  0  0  0  0  0
    2.1726   -3.7244    0.0000 C   0  0  0  0  0  0  0  0  0  0  0  0
    1.4234   -4.9552    0.0000 C   0  0  0  0  0  0  0  0  0  0  0  0
    9.2362   -5.3405    0.0000 O   0  0  0  0  0  0  0  0  0  0  0  0
    0.7171   -3.6923    0.0000 Cl  0  0  0  0  0  0  0  0  0  0  0  0
   10.7024   -6.2074    0.0000 C   0  0  0  0  0  0  0  0  0  0  0  0
    7.8234   -7.8556    0.0000 C   0  0  0  0  0  0  0  0  0  0  0  0
   10.7024   -5.3405    0.0000 C   0  0  0  0  0  0  0  0  0  0  0  0
    7.1171   -7.4275    0.0000 C   0  0  0  0  0  0  0  0  0  0  0  0
    0.7171   -7.8556    0.0000 O   0  0  0  0  0  0  0  0  0  0  0  0
    6.4107   -3.7244    0.0000 C   0  0  0  0  0  0  0  0  0  0  0  0
    5.7044   -2.4722    0.0000 C   0  0  0  0  0  0  0  0  0  0  0  0
    9.9425   -4.9552    0.0000 C   0  0  0  0  0  0  0  0  0  0  0  0
    9.2362   -0.4281    0.0000 C   0  0  0  0  0  0  0  0  0  0  0  0
    9.9425   -1.6482    0.0000 C   0  0  0  0  0  0  0  0  0  0  0  0
    0.0000   -7.4703    0.0000 C   0  0  0  0  0  0  0  0  0  0  0  0
    5.7044   -1.6482    0.0000 C   0  0  0  0  0  0  0  0  0  0  0  0
    5.7044   -4.1204    0.0000 C   0  0  0  0  0  0  0  0  0  0  0  0
    5.7044   -4.9552    0.0000 C   0  0  0  0  0  0  0  0  0  0  0  0
    4.9980   -1.2522    0.0000 C   0  0  0  0  0  0  0  0  0  0  0  0
   10.7024   -1.2522    0.0000 C   0  0  0  0  0  0  0  0  0  0  0  0
    9.9425    0.0000    0.0000 C   0  0  0  0  0  0  0  0  0  0  0  0
   10.7024   -0.4281    0.0000 C   0  0  0  0  0  0  0  0  0  0  0  0
  1  2  1  0
  1  4  1  0
  1  6  1  0
  2  3  2  0
  2 29  1  0
  3 11  1  0
  3  5  1  0
  4  5  2  0
  4 12  1  0
  5 17  1  0
  6 15  1  0
  6 20  2  0
  7 10  1  0
  7 18  1  0
  7 21  2  0
  8  9  1  0
  8 22  2  0
  8 23  1  0
  9 10  1  0
 10 24  1  0
 11 16  1  0
 12 36  2  0
 13 33  1  0
 13 43  1  0
 13 31  1  0
 14 44  1  0
 14 30  1  0
 14 32  1  0
 15 27  2  0
 15 28  1  0
 16 25  2  0
 16 38  1  0
 17 35  2  0
 18 48  1  0
 18 49  1  0
 19 41  1  0
 19 26  2  0
 19 34  1  0
 23 51  2  0
 23 52  1  0
 24 34  1  0
 27 39  1  0
 28 40  2  0
 30 31  1  0
 32 33  1  0
 35 36  1  0
 35 47  1  0
 37 40  1  0
 37 42  1  0
 37 39  2  0
 38 46  1  0
 41 50  1  0
 43 45  1  0
 44 46  1  0
 45 50  1  0
 47 53  1  0
 48 55  1  0
 49 54  1  0
 51 59  1  0
 52 58  2  0
 54 57  1  0
 55 56  1  0
 58 60  1  0
 59 60  2  0
M  END
>  <Formula>  (9) 
C46H58ClN5O8

>  <FW>  (9) 
844.4344

>  <DSSTox_CID>  (9) 
28768

>  <NR-AR>  (9) 
0

>  <NR-ER>  (9) 
1

>  <NR-ER-LBD>  (9) 
1

>  <NR-AhR>  (9) 
1

>  <SR-ATAD5>  (9) 
0

>  <SR-p53>  (9) 
0

$$$$
NCGC00160352-01
     RDKit          2D

 21 23  0  0  0  0  0  0  0  0999 V2000
    2.5973    0.0000    0.0000 N   0  0  0  0  0  0  0  0  0  0  0  0
    3.1816   -0.5843    0.0000 C   0  0  0  0  0  0  0  0  0  0  0  0
    3.9890   -0.4143    0.0000 O   0  0  0  0  0  0  0  0  0  0  0  0
    2.9266   -1.3703    0.0000 N   0  0  0  0  0  0  0  0  0  0  0  0
    3.4100   -2.0396    0.0000 C   0  0  0  0  0  0  0  0  0  0  0  0
    2.9266   -2.7036    0.0000 C   0  0  0  0  0  0  0  0  0  0  0  0
    3.1816   -3.4897    0.0000 C   0  0  0  0  0  0  0  0  0  0  0  0
    2.5973   -4.0739    0.0000 O   0  0  0  0  0  0  0  0  0  0  0  0
    3.9783   -3.7021    0.0000 C   0  0  0  0  0  0  0  0  0  0  0  0
    4.6210   -3.1816    0.0000 C   0  0  0  0  0  0  0  0  0  0  0  0
    5.3115   -3.6331    0.0000 C   0  0  0  0  0  0  0  0  0  0  0  0
    5.0990   -4.4298    0.0000 C   0  0  0  0  0  0  0  0  0  0  0  0
    4.2758   -4.4723    0.0000 S   0  0  0  0  0  0  0  0  0  0  0  0
    2.1405   -2.4486    0.0000 C   0  0  0  0  0  0  0  0  0  0  0  0
    1.4288   -2.8629    0.0000 C   0  0  0  0  0  0  0  0  0  0  0  0
    0.7117   -2.4486    0.0000 C   0  0  0  0  0  0  0  0  0  0  0  0
    0.7117   -1.6253    0.0000 C   0  0  0  0  0  0  0  0  0  0  0  0
    1.4288   -1.2110    0.0000 C   0  0  0  0  0  0  0  0  0  0  0  0
    2.1405   -1.6253    0.0000 C   0  0  0  0  0  0  0  0  0  0  0  0
    0.0000   -2.8629    0.0000 Cl  0  0  0  0  0  0  0  0  0  0  0  0
    4.2386   -2.0396    0.0000 O   0  0  0  0  0  0  0  0  0  0  0  0
  1  2  1  0
  2  3  2  0
  2  4  1  0
  4  5  1  0
  4 19  1  0
  5  6  2  0
  5 21  1  0
  6  7  1  0
  6 14  1  0
  7  8  2  0
  7  9  1  0
  9 10  2  0
  9 13  1  0
 10 11  1  0
 11 12  2  0
 12 13  1  0
 14 15  1  0
 14 19  2  0
 15 16  2  0
 16 17  1  0
 16 20  1  0
 17 18  2  0
 18 19  1  0
M  END
>  <Formula>  (10) 
C14H9ClN2O3S

>  <FW>  (10) 
320.7509

>  <DSSTox_CID>  (10) 
26104

>  <NR-AR>  (10) 
0

>  <NR-ER-LBD>  (10) 
0

>  <NR-AhR>  (10) 
1

>  <SR-MMP>  (10) 
1

>  <SR-p53>  (10) 
1

$$$$
NCGC00162150-01
     RDKit          2D

 36 38  0  0  0  0  0  0  0  0999 V2000
    0.7163   -3.5361    0.0000 O   0  0  0  0  0  0  0  0  0  0  0  0
    1.4326   -3.9454    0.0000 C   0  0  0  0  0  0  0  0  0  0  0  0
    2.1262   -3.5361    0.0000 C   0  0  0  0  0  0  0  0  0  0  0  0
    2.8425   -3.9454    0.0000 O   0  0  0  0  0  0  0  0  0  0  0  0
    3.5588   -3.5361    0.0000 C   0  0  0  0  0  0  0  0  0  0  0  0
    3.5588   -2.7174    0.0000 O   0  0  0  0  0  0  0  0  0  0  0  0
    0.0000   -3.9454    0.0000 C   0  0  0  0  0  0  0  0  0  0  0  0
    4.2524   -3.9454    0.0000 C   0  0  0  0  0  0  0  0  0  0  0  0
    4.2524   -4.7527    0.0000 C   0  0  0  0  0  0  0  0  0  0  0  0
    4.9687   -5.1734    0.0000 N   0  0  0  0  0  0  0  0  0  0  0  0
    5.6850   -4.7527    0.0000 C   0  0  0  0  0  0  0  0  0  0  0  0
    5.6850   -3.9454    0.0000 C   0  0  0  0  0  0  0  0  0  0  0  0
    4.9687   -3.5361    0.0000 C   0  0  0  0  0  0  0  0  0  0  0  0
    3.5588   -5.1734    0.0000 C   0  0  0  0  0  0  0  0  0  0  0  0
    6.3900   -5.1734    0.0000 C   0  0  0  0  0  0  0  0  0  0  0  0
    6.3900   -3.5361    0.0000 C   0  0  0  0  0  0  0  0  0  0  0  0
    7.8226   -3.5361    0.0000 C   0  0  0  0  0  0  0  0  0  0  0  0
    8.5275   -3.9454    0.0000 C   0  0  0  0  0  0  0  0  0  0  0  0
    9.2438   -3.5361    0.0000 C   0  0  0  0  0  0  0  0  0  0  0  0
    9.9602   -3.9454    0.0000 C   0  0  0  0  0  0  0  0  0  0  0  0
    4.9687   -2.6492    0.0000 C   0  0  0  0  0  0  0  0  0  0  0  0
    5.7305   -2.2172    0.0000 C   0  0  0  0  0  0  0  0  0  0  0  0
    5.7305   -1.3303    0.0000 C   0  0  0  0  0  0  0  0  0  0  0  0
    4.9687   -0.8755    0.0000 C   0  0  0  0  0  0  0  0  0  0  0  0
    4.1955   -1.3303    0.0000 C   0  0  0  0  0  0  0  0  0  0  0  0
    4.1955   -2.2172    0.0000 C   0  0  0  0  0  0  0  0  0  0  0  0
    6.5037   -0.8755    0.0000 N   0  0  0  0  0  0  0  0  0  0  0  0
    7.2655   -1.3303    0.0000 O   0  0  0  0  0  0  0  0  0  0  0  0
    6.5037    0.0000    0.0000 O   0  0  0  0  0  0  0  0  0  0  0  0
   10.6537   -3.5361    0.0000 C   0  0  0  0  0  0  0  0  0  0  0  0
   11.3700   -3.9454    0.0000 C   0  0  0  0  0  0  0  0  0  0  0  0
   11.3700   -4.7527    0.0000 C   0  0  0  0  0  0  0  0  0  0  0  0
   10.6537   -5.1734    0.0000 C   0  0  0  0  0  0  0  0  0  0  0  0
    9.9602   -4.7527    0.0000 C   0  0  0  0  0  0  0  0  0  0  0  0
    7.0949   -3.9454    0.0000 O   0  0  0  0  0  0  0  0  0  0  0  0
    6.3900   -2.7061    0.0000 O   0  0  0  0  0  0  0  0  0  0  0  0
  1  2  1  0
  1  7  1  0
  2  3  1  0
  3  4  1  0
  4  5  1  0
  5  6  2  0
  5  8  1  0
  8 13  1  0
  8  9  2  0
  9 10  1  0
  9 14  1  0
 10 11  1  0
 11 12  2  0
 11 15  1  0
 12 13  1  0
 12 16  1  0
 13 21  1  0
 16 35  1  0
 16 36  2  0
 17 35  1  0
 17 18  1  0
 18 19  2  0
 19 20  1  0
 20 30  2  0
 20 34  1  0
 21 22  2  0
 21 26  1  0
 22 23  1  0
 23 24  2  0
 23 27  1  0
 24 25  1  0
 25 26  2  0
 27 28  1  0
 27 29  2  0
 30 31  1  0
 31 32  2  0
 32 33  1  0
 33 34  2  0
M  CHG  2  27   1  28  -1
M  END
>  <Formula>  (11) 
C27H28N2O7

>  <FW>  (11) 
492.5204

>  <DSSTox_CID>  (11) 
26309

>  <NR-AR>  (11) 
0

>  <NR-ER-LBD>  (11) 
0

>  <NR-AhR>  (11) 
1

>  <SR-MMP>  (11) 
1

>  <SR-p53>  (11) 
0

$$$$
NCGC00241104-01
     RDKit          2D

 39 43  0  0  0  0  0  0  0  0999 V2000
    8.7292   -1.2152    0.0000 C   0  0  0  0  0  0  0  0  0  0  0  0
    7.7593   -1.5831    0.0000 C   0  0  0  0  0  0  0  0  0  0  0  0
    0.5686   -6.0648    0.0000 C   0  0  0  0  0  0  0  0  0  0  0  0
    2.7091   -2.9097    0.0000 N   0  0  0  0  0  0  0  0  0  0  0  0
    3.4226   -2.4861    0.0000 C   0  0  0  0  0  0  0  0  0  0  0  0
    3.4226   -1.6611    0.0000 O   0  0  0  0  0  0  0  0  0  0  0  0
    4.1361   -2.8986    0.0000 N   0  0  0  0  0  0  0  0  0  0  0  0
    4.8496   -2.4861    0.0000 C   0  0  0  0  0  0  0  0  0  0  0  0
    5.5631   -2.8986    0.0000 C   0  0  0  0  0  0  0  0  0  0  0  0
    6.2655   -2.4861    0.0000 C   0  0  0  0  0  0  0  0  0  0  0  0
    6.2655   -1.6500    0.0000 C   0  0  0  0  0  0  0  0  0  0  0  0
    5.5520   -1.2486    0.0000 C   0  0  0  0  0  0  0  0  0  0  0  0
    4.8496   -1.6611    0.0000 C   0  0  0  0  0  0  0  0  0  0  0  0
    6.9901   -1.2375    0.0000 O   0  0  0  0  0  0  0  0  0  0  0  0
    1.9955   -2.4972    0.0000 C   0  0  0  0  0  0  0  0  0  0  0  0
    1.9064   -1.6723    0.0000 C   0  0  0  0  0  0  0  0  0  0  0  0
    1.0926   -1.5051    0.0000 C   0  0  0  0  0  0  0  0  0  0  0  0
    0.6912   -2.2185    0.0000 N   0  0  0  0  0  0  0  0  0  0  0  0
    1.2486   -2.8429    0.0000 N   0  0  0  0  0  0  0  0  0  0  0  0
    0.7581   -0.7469    0.0000 C   0  0  0  0  0  0  0  0  0  0  0  0
    1.5162   -0.4236    0.0000 C   0  0  0  0  0  0  0  0  0  0  0  0
    0.0000   -1.0926    0.0000 C   0  0  0  0  0  0  0  0  0  0  0  0
    0.4125    0.0000    0.0000 C   0  0  0  0  0  0  0  0  0  0  0  0
    0.2899   -3.8908    0.0000 C   0  0  0  0  0  0  0  0  0  0  0  0
    0.1226   -4.7047    0.0000 C   0  0  0  0  0  0  0  0  0  0  0  0
    1.0702   -3.6344    0.0000 C   0  0  0  0  0  0  0  0  0  0  0  0
    0.7246   -5.2509    0.0000 C   0  0  0  0  0  0  0  0  0  0  0  0
    1.6834   -4.1918    0.0000 C   0  0  0  0  0  0  0  0  0  0  0  0
    1.5274   -4.9945    0.0000 C   0  0  0  0  0  0  0  0  0  0  0  0
    5.5631   -3.7236    0.0000 C   0  0  0  0  0  0  0  0  0  0  0  0
    6.2766   -4.1361    0.0000 C   0  0  0  0  0  0  0  0  0  0  0  0
    6.9901   -2.8875    0.0000 C   0  0  0  0  0  0  0  0  0  0  0  0
    7.0013   -3.7124    0.0000 C   0  0  0  0  0  0  0  0  0  0  0  0
    9.7103   -1.4939    0.0000 N   0  0  0  0  0  0  0  0  0  0  0  0
   10.4350   -1.0814    0.0000 C   0  0  0  0  0  0  0  0  0  0  0  0
   11.1485   -1.4939    0.0000 C   0  0  0  0  0  0  0  0  0  0  0  0
   11.1485   -2.3189    0.0000 O   0  0  0  0  0  0  0  0  0  0  0  0
   10.4350   -2.7314    0.0000 C   0  0  0  0  0  0  0  0  0  0  0  0
    9.7103   -2.3189    0.0000 C   0  0  0  0  0  0  0  0  0  0  0  0
  1  2  1  0
  1 34  1  0
  2 14  1  0
  3 27  1  0
  4  5  1  0
  4 15  1  0
  5  6  2  0
  5  7  1  0
  7  8  1  0
  8  9  1  0
  8 13  2  0
  9 30  1  0
  9 10  2  0
 10 11  1  0
 10 32  1  0
 11 12  2  0
 11 14  1  0
 12 13  1  0
 15 16  2  0
 15 19  1  0
 16 17  1  0
 17 18  2  0
 17 20  1  0
 18 19  1  0
 19 26  1  0
 20 21  1  0
 20 22  1  0
 20 23  1  0
 24 25  2  0
 24 26  1  0
 25 27  1  0
 26 28  2  0
 27 29  2  0
 28 29  1  0
 30 31  2  0
 31 33  1  0
 32 33  2  0
 34 35  1  0
 34 39  1  0
 35 36  1  0
 36 37  1  0
 37 38  1  0
 38 39  1  0
M  END
>  <Formula>  (12) 
C31H37N5O3

>  <FW>  (12) 
527.6572

>  <DSSTox_CID>  (12) 
28883

>  <NR-Aromatase>  (12) 
0

>  <NR-AR>  (12) 
0

>  <NR-AR-LBD>  (12) 
0

>  <NR-ER-LBD>  (12) 
0

>  <NR-AhR>  (12) 
1

>  <SR-ATAD5>  (12) 
0

>  <SR-MMP>  (12) 
1

$$$$
NCGC00257858-01
     RDKit          2D

 25 26  0  0  0  0  0  0  0  0999 V2000
    4.8691   -3.6988    0.0000 C   0  0  0  0  0  0  0  0  0  0  0  0
    4.1551   -4.1122    0.0000 O   0  0  0  0  0  0  0  0  0  0  0  0
    3.4518   -3.6988    0.0000 C   0  0  0  0  0  0  0  0  0  0  0  0
    2.7325   -4.1122    0.0000 O   0  0  0  0  0  0  0  0  0  0  0  0
    3.4518   -2.8828    0.0000 C   0  0  0  0  0  0  0  0  0  0  0  0
    4.1551   -2.4694    0.0000 C   0  0  0  0  0  0  0  0  0  0  0  0
    4.8691   -2.8828    0.0000 C   0  0  0  0  0  0  0  0  0  0  0  0
    4.1551   -1.6427    0.0000 N   0  0  0  0  0  0  0  0  0  0  0  0
    3.4518   -1.2293    0.0000 C   0  0  0  0  0  0  0  0  0  0  0  0
    2.7325   -1.6427    0.0000 C   0  0  0  0  0  0  0  0  0  0  0  0
    2.7325   -2.4694    0.0000 C   0  0  0  0  0  0  0  0  0  0  0  0
    1.5461   -3.2156    0.0000 C   0  0  0  0  0  0  0  0  0  0  0  0
    0.9233   -2.6788    0.0000 C   0  0  0  0  0  0  0  0  0  0  0  0
    0.1503   -2.9687    0.0000 C   0  0  0  0  0  0  0  0  0  0  0  0
    0.0000   -3.7685    0.0000 C   0  0  0  0  0  0  0  0  0  0  0  0
    0.6227   -4.3054    0.0000 C   0  0  0  0  0  0  0  0  0  0  0  0
    1.4065   -4.0155    0.0000 C   0  0  0  0  0  0  0  0  0  0  0  0
    1.7125   -4.6382    0.0000 N   0  0  0  0  0  0  0  0  0  0  0  0
    2.6090   -5.0784    0.0000 O   0  0  0  0  0  0  0  0  0  0  0  0
    1.2401   -5.3683    0.0000 O   0  0  0  0  0  0  0  0  0  0  0  0
    2.0132   -1.2293    0.0000 C   0  0  0  0  0  0  0  0  0  0  0  0
    1.3099   -1.6427    0.0000 O   0  0  0  0  0  0  0  0  0  0  0  0
    2.0132   -0.4133    0.0000 O   0  0  0  0  0  0  0  0  0  0  0  0
    2.7325    0.0000    0.0000 C   0  0  0  0  0  0  0  0  0  0  0  0
    3.4518   -0.4133    0.0000 C   0  0  0  0  0  0  0  0  0  0  0  0
  1  2  1  0
  2  3  1  0
  3  4  2  0
  3  5  1  0
  5  6  2  0
  5 11  1  0
  6  7  1  0
  6  8  1  0
  8  9  1  0
  9 10  2  0
  9 25  1  0
 10 11  1  0
 10 21  1  0
 11 12  1  0
 12 13  2  0
 12 17  1  0
 13 14  1  0
 14 15  2  0
 15 16  1  0
 16 17  2  0
 17 18  1  0
 18 19  2  0
 18 20  1  0
 21 22  2  0
 21 23  1  0
 23 24  1  0
M  CHG  2  18   1  20  -1
M  END
>  <Formula>  (13) 
C17H18N2O6

>  <FW>  (13) 
346.3346

>  <DSSTox_CID>  (13) 
5715

>  <NR-AR>  (13) 
0

>  <NR-AR-LBD>  (13) 
0

>  <NR-ER-LBD>  (13) 
0

>  <NR-AhR>  (13) 
1

>  <SR-ARE>  (13) 
0

>  <SR-p53>  (13) 
0

$$$$
NCGC00159551-01
     RDKit          2D

 31 35  0  0  1  0  0  0  0  0999 V2000
    2.0730   -2.6653    0.0000 C   0  0  0  0  0  0  0  0  0  0  0  0
    1.4327   -2.1450    0.0000 C   0  0  0  0  0  0  0  0  0  0  0  0
    1.8729   -3.4577    0.0000 C   0  0  0  0  0  0  0  0  0  0  0  0
    2.8734   -2.4732    0.0000 N   0  0  0  0  0  0  0  0  0  0  0  0
    1.4327   -1.3207    0.0000 C   0  0  0  0  0  0  0  0  0  0  0  0
    0.7124   -2.5532    0.0000 C   0  0  0  0  0  0  0  0  0  0  0  0
    2.4892   -4.0259    0.0000 C   0  0  0  0  0  0  0  0  0  0  0  0
    1.0885   -3.7058    0.0000 C   0  0  0  0  0  0  0  0  0  0  0  0
    3.2336   -1.7288    0.0000 C   0  0  0  0  0  0  0  0  0  0  0  0
    2.0730   -0.8084    0.0000 N   0  0  0  0  0  0  0  0  0  0  0  0
    0.7124   -0.9044    0.0000 C   0  0  0  0  0  0  0  0  0  0  0  0
    0.0000   -2.1450    0.0000 C   0  0  0  0  0  0  0  0  0  0  0  0
    2.3131   -4.8183    0.0000 C   0  0  0  0  0  0  0  0  0  0  0  0
    0.9204   -4.5141    0.0000 C   0  0  0  0  0  0  0  0  0  0  0  0
    2.8734   -0.9844    0.0000 C   0  0  0  0  0  0  0  0  0  0  0  0
    4.0580   -1.7288    0.0000 N   0  0  0  0  0  0  0  0  0  0  0  0
    1.8729    0.0000    0.0000 C   0  0  0  0  0  0  0  0  0  0  0  0
    0.0000   -1.3207    0.0000 C   0  0  0  0  0  0  0  0  0  0  0  0
    1.5207   -5.0664    0.0000 C   0  0  0  0  0  0  0  0  0  0  0  0
    3.3936   -0.3281    0.0000 O   0  0  0  0  0  0  0  0  0  0  0  0
    4.4821   -2.4412    0.0000 C   0  0  0  0  0  0  0  0  0  0  0  0
    5.3065   -2.4412    0.0000 C   0  0  0  0  0  0  0  0  0  0  0  0
    4.0580   -3.1695    0.0000 O   0  0  0  0  0  0  0  0  0  0  0  0
    5.7787   -1.7768    0.0000 C   0  0  0  0  0  0  0  0  0  0  0  0
    5.7787   -3.1215    0.0000 N   0  0  0  0  0  0  0  0  0  0  0  0
    6.5711   -2.0410    0.0000 C   0  0  0  0  0  0  0  0  0  0  0  0
    6.5711   -2.8654    0.0000 C   0  0  0  0  0  0  0  0  0  0  0  0
    7.2755   -1.6088    0.0000 C   0  0  0  0  0  0  0  0  0  0  0  0
    7.2755   -3.2656    0.0000 C   0  0  0  0  0  0  0  0  0  0  0  0
    8.0038   -2.0410    0.0000 C   0  0  0  0  0  0  0  0  0  0  0  0
    8.0038   -2.8654    0.0000 C   0  0  0  0  0  0  0  0  0  0  0  0
  1  2  1  0
  1  3  1  0
  1  4  2  0
  2  5  2  0
  2  6  1  0
  3  7  2  0
  3  8  1  0
  4  9  1  0
  5 10  1  0
  5 11  1  0
  6 12  2  0
  7 13  1  0
  8 14  2  0
  9 15  1  0
  9 16  1  1
 10 17  1  0
 10 15  1  0
 11 18  2  0
 12 18  1  0
 13 19  2  0
 14 19  1  0
 15 20  2  0
 16 21  1  0
 21 22  1  0
 21 23  2  0
 22 24  2  0
 22 25  1  0
 24 26  1  0
 25 27  1  0
 26 28  2  0
 26 27  1  0
 27 29  2  0
 28 30  1  0
 29 31  1  0
 30 31  2  0
M  END
>  <Formula>  (14) 
C25H20N4O2

>  <FW>  (14) 
408.4519

>  <DSSTox_CID>  (14) 
26092

>  <NR-Aromatase>  (14) 
1

>  <NR-AR>  (14) 
0

>  <NR-AR-LBD>  (14) 
0

>  <NR-ER-LBD>  (14) 
0

>  <NR-AhR>  (14) 
1

>  <SR-ATAD5>  (14) 
1

>  <SR-MMP>  (14) 
1

$$$$
NCGC00255075-01
     RDKit          2D

 29 30  0  0  0  0  0  0  0  0999 V2000
    2.8538   -2.3591    0.0000 N   0  0  0  0  0  0  0  0  0  0  0  0
    2.1385   -2.7777    0.0000 C   0  0  0  0  0  0  0  0  0  0  0  0
    2.8538   -1.5449    0.0000 C   0  0  0  0  0  0  0  0  0  0  0  0
    2.1385   -1.1339    0.0000 C   0  0  0  0  0  0  0  0  0  0  0  0
    1.4231   -2.3591    0.0000 C   0  0  0  0  0  0  0  0  0  0  0  0
    1.4231   -1.5449    0.0000 C   0  0  0  0  0  0  0  0  0  0  0  0
    3.5539   -1.1339    0.0000 N   0  0  0  0  0  0  0  0  0  0  0  0
    2.1385   -0.3120    0.0000 Cl  0  0  0  0  0  0  0  0  0  0  0  0
    4.7564   -1.6438    0.0000 C   0  0  0  0  0  0  0  0  0  0  0  0
    5.4717   -1.2328    0.0000 C   0  0  0  0  0  0  0  0  0  0  0  0
    4.7564   -2.4581    0.0000 C   0  0  0  0  0  0  0  0  0  0  0  0
    6.1871   -1.6438    0.0000 C   0  0  0  0  0  0  0  0  0  0  0  0
    5.4717   -2.8767    0.0000 C   0  0  0  0  0  0  0  0  0  0  0  0
    6.1871   -2.4581    0.0000 C   0  0  0  0  0  0  0  0  0  0  0  0
    6.8948   -1.2328    0.0000 Cl  0  0  0  0  0  0  0  0  0  0  0  0
    5.4717   -0.4110    0.0000 N   0  0  0  0  0  0  0  0  0  0  0  0
    4.7564    0.0000    0.0000 O   0  0  0  0  0  0  0  0  0  0  0  0
    6.1871    0.0000    0.0000 O   0  0  0  0  0  0  0  0  0  0  0  0
    4.0486   -2.8767    0.0000 N   0  0  0  0  0  0  0  0  0  0  0  0
    4.0486   -3.6985    0.0000 O   0  0  0  0  0  0  0  0  0  0  0  0
    3.3941   -2.4505    0.0000 O   0  0  0  0  0  0  0  0  0  0  0  0
    6.8948   -2.8767    0.0000 C   0  0  0  0  0  0  0  0  0  0  0  0
    6.4839   -3.5920    0.0000 F   0  0  0  0  0  0  0  0  0  0  0  0
    7.3058   -2.1613    0.0000 F   0  0  0  0  0  0  0  0  0  0  0  0
    7.6102   -3.2800    0.0000 F   0  0  0  0  0  0  0  0  0  0  0  0
    0.7154   -2.7777    0.0000 C   0  0  0  0  0  0  0  0  0  0  0  0
    0.2968   -2.0624    0.0000 F   0  0  0  0  0  0  0  0  0  0  0  0
    1.1187   -3.4931    0.0000 F   0  0  0  0  0  0  0  0  0  0  0  0
    0.0000   -3.1811    0.0000 F   0  0  0  0  0  0  0  0  0  0  0  0
  1  2  2  0
  1  3  1  0
  2  5  1  0
  3  4  2  0
  3  7  1  0
  4  6  1  0
  4  8  1  0
  5  6  2  0
  5 26  1  0
  7  9  1  0
  9 10  2  0
  9 11  1  0
 10 12  1  0
 10 16  1  0
 11 13  2  0
 11 19  1  0
 12 14  2  0
 12 15  1  0
 13 14  1  0
 14 22  1  0
 16 17  1  0
 16 18  2  0
 19 20  1  0
 19 21  2  0
 22 23  1  0
 22 24  1  0
 22 25  1  0
 26 27  1  0
 26 28  1  0
 26 29  1  0
M  CHG  4  16   1  17  -1  19   1  20  -1
M  END
>  <Formula>  (15) 
C13H4Cl2F6N4O4

>  <FW>  (15) 
465.0917

>  <DSSTox_CID>  (15) 
12551

>  <NR-Aromatase>  (15) 
1

>  <NR-AR>  (15) 
0

>  <NR-ER-LBD>  (15) 
1

>  <NR-PPAR-gamma>  (15) 
1

>  <NR-AhR>  (15) 
1

>  <SR-ATAD5>  (15) 
0

>  <SR-HSE>  (15) 
1

>  <SR-p53>  (15) 
1

$$$$
NCGC00168786-02
     RDKit          2D

 42 47  0  0  1  0  0  0  0  0999 V2000
    2.8366   -1.2329    0.0000 C   0  0  0  0  0  0  0  0  0  0  0  0
    2.8366   -0.3986    0.0000 C   0  0  0  0  0  0  0  0  0  0  0  0
    2.1414   -1.6501    0.0000 N   0  0  0  0  0  0  0  0  0  0  0  0
    4.2642   -3.6802    0.0000 C   0  0  0  0  0  0  0  0  0  0  0  0
    4.2642   -2.8645    0.0000 C   0  0  0  0  0  0  0  0  0  0  0  0
    3.5597   -1.6501    0.0000 C   0  0  0  0  0  0  0  0  0  0  0  0
    4.2550   -1.2329    0.0000 N   0  0  0  0  0  0  0  0  0  0  0  0
    4.9316   -2.4751    0.0000 C   0  0  0  0  0  0  0  0  0  0  0  0
    5.6640   -3.6802    0.0000 C   0  0  0  0  0  0  0  0  0  0  0  0
    7.1101   -3.6895    0.0000 C   0  0  0  0  0  0  0  0  0  0  0  0
    3.5597   -2.4751    0.0000 C   0  0  0  0  0  0  0  0  0  0  0  0
    1.4183   -0.3986    0.0000 C   0  0  0  0  0  0  0  0  0  0  0  0
    4.9687   -4.0881    0.0000 C   0  0  0  0  0  0  0  0  0  0  0  0
    1.4183   -1.2329    0.0000 C   0  0  0  0  0  0  0  0  0  0  0  0
    7.1101   -2.8830    0.0000 C   0  0  0  0  0  0  0  0  0  0  0  0
    7.1101   -1.2329    0.0000 C   0  0  0  0  0  0  0  0  0  0  0  0
    3.5597   -4.1344    0.0000 C   0  0  0  0  0  0  0  0  0  0  0  0
    6.3871   -4.1066    0.0000 O   0  0  0  0  0  0  0  0  0  0  0  0
    4.9316   -1.6501    0.0000 C   0  0  0  0  0  0  0  0  0  0  0  0
    7.8147   -1.6594    0.0000 C   0  0  0  0  0  0  0  0  0  0  0  0
    6.4056   -1.6594    0.0000 C   0  0  0  0  0  0  0  0  0  0  0  0
    5.6640   -2.8645    0.0000 C   0  0  0  0  0  0  0  0  0  0  0  0
    3.5319    0.0000    0.0000 C   0  0  0  0  0  0  0  0  0  0  0  0
    7.8147   -2.4844    0.0000 C   0  0  0  0  0  0  0  0  0  0  0  0
    6.4056   -2.4844    0.0000 C   0  0  0  0  0  0  0  0  0  0  0  0
    4.2550   -0.3986    0.0000 C   0  0  0  0  0  0  0  0  0  0  0  0
    7.8147   -4.1066    0.0000 O   0  0  0  0  0  0  0  0  0  0  0  0
    2.8552   -3.6988    0.0000 O   0  0  0  0  0  0  0  0  0  0  0  0
    7.1101   -0.4172    0.0000 O   0  0  0  0  0  0  0  0  0  0  0  0
    4.9687   -4.9224    0.0000 O   0  0  0  0  0  0  0  0  0  0  0  0
    3.5597   -4.9409    0.0000 O   0  0  0  0  0  0  0  0  0  0  0  0
    8.5470   -1.2329    0.0000 O   0  0  0  0  0  0  0  0  0  0  0  0
    5.7103   -1.2236    0.0000 O   0  0  0  0  0  0  0  0  0  0  0  0
    0.7231    0.0000    0.0000 C   0  0  0  0  0  0  0  0  0  0  0  0
    0.7231   -1.6501    0.0000 C   0  0  0  0  0  0  0  0  0  0  0  0
    7.8147    0.0000    0.0000 C   0  0  0  0  0  0  0  0  0  0  0  0
    5.6732   -5.3395    0.0000 C   0  0  0  0  0  0  0  0  0  0  0  0
    5.7103   -0.3430    0.0000 C   0  0  0  0  0  0  0  0  0  0  0  0
    4.2827   -5.3395    0.0000 C   0  0  0  0  0  0  0  0  0  0  0  0
    9.2700   -1.6501    0.0000 C   0  0  0  0  0  0  0  0  0  0  0  0
    0.0000   -0.3986    0.0000 C   0  0  0  0  0  0  0  0  0  0  0  0
    0.0000   -1.2329    0.0000 C   0  0  0  0  0  0  0  0  0  0  0  0
  1  2  2  0
  1  3  1  0
  1  6  1  0
  2 12  1  0
  2 23  1  0
  3 14  1  0
  4  5  1  0
  4 13  1  0
  4 17  1  1
  5 11  1  1
  5  8  1  0
  6  7  1  0
  6 11  1  6
  7 19  1  0
  7 26  1  0
  8 22  1  1
  8 19  1  0
  9 22  1  0
  9 18  1  1
  9 13  1  0
 10 18  1  0
 10 15  1  0
 10 27  2  0
 12 34  1  0
 12 14  2  0
 13 30  1  6
 14 35  1  0
 15 24  1  0
 15 25  2  0
 16 21  2  0
 16 29  1  0
 16 20  1  0
 17 28  2  0
 17 31  1  0
 20 24  2  0
 20 32  1  0
 21 25  1  0
 21 33  1  0
 23 26  1  0
 29 36  1  0
 30 37  1  0
 31 39  1  0
 32 40  1  0
 33 38  1  0
 34 41  2  0
 35 42  2  0
 41 42  1  0
M  END
>  <Formula>  (16) 
C32H38N2O8

>  <FW>  (16) 
578.6527

>  <DSSTox_CID>  (16) 
383

>  <NR-AR>  (16) 
0

>  <NR-ER>  (16) 
0

>  <NR-ER-LBD>  (16) 
0

>  <NR-AhR>  (16) 
1

>  <SR-ATAD5>  (16) 
0

>  <SR-p53>  (16) 
0

$$$$
NCGC00161927-01
     RDKit          2D

 29 33  0  0  1  0  0  0  0  0999 V2000
    2.6999   -1.2403    0.0000 C   0  0  0  0  0  0  0  0  0  0  0  0
    2.6999   -2.0653    0.0000 C   0  0  0  0  0  0  0  0  0  0  0  0
    1.9845   -0.8250    0.0000 C   0  0  0  0  0  0  0  0  0  0  0  0
    1.9845   -2.4749    0.0000 C   0  0  0  0  0  0  0  0  0  0  0  0
    1.2692   -1.2403    0.0000 C   0  0  0  0  0  0  0  0  0  0  0  0
    1.2692   -2.0653    0.0000 C   0  0  0  0  0  0  0  0  0  0  0  0
    3.4153   -0.8250    0.0000 C   0  0  0  0  0  0  0  0  0  0  0  0
    4.1306   -1.2403    0.0000 C   0  0  0  0  0  0  0  0  0  0  0  0
    3.4153   -2.4749    0.0000 C   0  0  0  0  0  0  0  0  0  0  0  0
    4.1306   -2.0653    0.0000 C   0  0  0  0  0  0  0  0  0  0  0  0
    4.9152   -0.9807    0.0000 C   0  0  0  0  0  0  0  0  0  0  0  0
    5.3941   -1.6499    0.0000 O   0  0  0  0  0  0  0  0  0  0  0  0
    4.9152   -2.3134    0.0000 C   0  0  0  0  0  0  0  0  0  0  0  0
    0.4846   -0.9807    0.0000 O   0  0  0  0  0  0  0  0  0  0  0  0
    0.0000   -1.6499    0.0000 C   0  0  0  0  0  0  0  0  0  0  0  0
    0.4846   -2.3134    0.0000 O   0  0  0  0  0  0  0  0  0  0  0  0
    3.4153   -3.2941    0.0000 C   0  0  0  0  0  0  0  0  0  0  0  0
    4.1306   -3.7153    0.0000 C   0  0  0  0  0  0  0  0  0  0  0  0
    2.6999   -3.7153    0.0000 C   0  0  0  0  0  0  0  0  0  0  0  0
    4.1306   -4.5403    0.0000 C   0  0  0  0  0  0  0  0  0  0  0  0
    2.6999   -4.5287    0.0000 C   0  0  0  0  0  0  0  0  0  0  0  0
    3.4153   -4.9441    0.0000 C   0  0  0  0  0  0  0  0  0  0  0  0
    3.4153    0.0000    0.0000 O   0  0  0  0  0  0  0  0  0  0  0  0
    5.1633   -3.0979    0.0000 O   0  0  0  0  0  0  0  0  0  0  0  0
    1.9845   -4.9441    0.0000 O   0  0  0  0  0  0  0  0  0  0  0  0
    1.2692   -4.5287    0.0000 C   0  0  0  0  0  0  0  0  0  0  0  0
    3.4153   -5.7691    0.0000 O   0  0  0  0  0  0  0  0  0  0  0  0
    4.8460   -4.9441    0.0000 O   0  0  0  0  0  0  0  0  0  0  0  0
    5.5498   -4.5403    0.0000 C   0  0  0  0  0  0  0  0  0  0  0  0
  1  3  2  0
  1  7  1  0
  1  2  1  0
  2  4  2  0
  2  9  1  0
  3  5  1  0
  4  6  1  0
  5  6  2  0
  5 14  1  0
  6 16  1  0
  7  8  1  0
  7 23  1  1
  8 11  1  1
  8 10  1  0
  9 10  1  0
  9 17  1  6
 10 13  1  6
 11 12  1  0
 12 13  1  0
 13 24  2  0
 14 15  1  0
 15 16  1  0
 17 18  2  0
 17 19  1  0
 18 20  1  0
 19 21  2  0
 20 22  2  0
 20 28  1  0
 21 22  1  0
 21 25  1  0
 22 27  1  0
 25 26  1  0
 28 29  1  0
M  END
>  <Formula>  (17) 
C21H20O8

>  <FW>  (17) 
400.3787

>  <DSSTox_CID>  (17) 
28668

>  <NR-Aromatase>  (17) 
0

>  <NR-AR>  (17) 
0

>  <NR-ER>  (17) 
0

>  <NR-AhR>  (17) 
1

>  <SR-ATAD5>  (17) 
1

>  <SR-MMP>  (17) 
1

>  <SR-p53>  (17) 
1

$$$$
NCGC00091250-04
     RDKit          2D

 44 49  0  0  1  0  0  0  0  0999 V2000
    3.3797   -1.2931    0.0000 C   0  0  0  0  0  0  0  0  0  0  0  0
    2.7430   -1.6360    0.0000 N   0  0  0  0  0  0  0  0  0  0  0  0
    3.3797   -0.4507    0.0000 C   0  0  0  0  0  0  0  0  0  0  0  0
    4.8002   -3.7618    0.0000 C   0  0  0  0  0  0  0  0  0  0  0  0
    4.8002   -2.9487    0.0000 C   0  0  0  0  0  0  0  0  0  0  0  0
    4.0949   -1.7046    0.0000 C   0  0  0  0  0  0  0  0  0  0  0  0
    4.8002   -1.2931    0.0000 N   0  0  0  0  0  0  0  0  0  0  0  0
    2.0866   -1.2049    0.0000 C   0  0  0  0  0  0  0  0  0  0  0  0
    2.0866   -0.4507    0.0000 C   0  0  0  0  0  0  0  0  0  0  0  0
    5.5056   -2.5274    0.0000 C   0  0  0  0  0  0  0  0  0  0  0  0
    6.2304   -3.7618    0.0000 C   0  0  0  0  0  0  0  0  0  0  0  0
    7.6509   -3.7520    0.0000 C   0  0  0  0  0  0  0  0  0  0  0  0
    4.0949   -2.5274    0.0000 C   0  0  0  0  0  0  0  0  0  0  0  0
    5.5056   -4.1732    0.0000 C   0  0  0  0  0  0  0  0  0  0  0  0
    7.6509   -2.9291    0.0000 C   0  0  0  0  0  0  0  0  0  0  0  0
    7.6509   -1.2736    0.0000 C   0  0  0  0  0  0  0  0  0  0  0  0
    4.0949   -4.1928    0.0000 C   0  0  0  0  0  0  0  0  0  0  0  0
    6.9358   -4.1732    0.0000 O   0  0  0  0  0  0  0  0  0  0  0  0
    5.5056   -1.7046    0.0000 C   0  0  0  0  0  0  0  0  0  0  0  0
    6.9260   -1.6850    0.0000 C   0  0  0  0  0  0  0  0  0  0  0  0
    8.3661   -1.6850    0.0000 C   0  0  0  0  0  0  0  0  0  0  0  0
    6.2304   -2.9487    0.0000 C   0  0  0  0  0  0  0  0  0  0  0  0
    4.0949   -0.0392    0.0000 C   0  0  0  0  0  0  0  0  0  0  0  0
    6.9260   -2.5079    0.0000 C   0  0  0  0  0  0  0  0  0  0  0  0
    8.3661   -2.5079    0.0000 C   0  0  0  0  0  0  0  0  0  0  0  0
    1.3715   -1.6654    0.0000 C   0  0  0  0  0  0  0  0  0  0  0  0
    1.3715    0.0000    0.0000 C   0  0  0  0  0  0  0  0  0  0  0  0
    4.8002   -0.4507    0.0000 C   0  0  0  0  0  0  0  0  0  0  0  0
    8.3661   -4.1635    0.0000 O   0  0  0  0  0  0  0  0  0  0  0  0
    3.3797   -3.7814    0.0000 O   0  0  0  0  0  0  0  0  0  0  0  0
    0.6759   -1.2539    0.0000 C   0  0  0  0  0  0  0  0  0  0  0  0
    7.6509   -0.4408    0.0000 O   0  0  0  0  0  0  0  0  0  0  0  0
    0.6759   -0.4114    0.0000 C   0  0  0  0  0  0  0  0  0  0  0  0
    5.5056   -5.0059    0.0000 O   0  0  0  0  0  0  0  0  0  0  0  0
    4.0949   -5.0059    0.0000 O   0  0  0  0  0  0  0  0  0  0  0  0
    6.2109   -1.2736    0.0000 O   0  0  0  0  0  0  0  0  0  0  0  0
    9.0812   -1.2736    0.0000 O   0  0  0  0  0  0  0  0  0  0  0  0
    0.0000   -1.7241    0.0000 O   0  0  0  0  0  0  0  0  0  0  0  0
    8.3661   -0.0196    0.0000 C   0  0  0  0  0  0  0  0  0  0  0  0
    6.2304   -5.4272    0.0000 C   0  0  0  0  0  0  0  0  0  0  0  0
    6.2109   -0.4408    0.0000 C   0  0  0  0  0  0  0  0  0  0  0  0
    9.7963   -1.6850    0.0000 C   0  0  0  0  0  0  0  0  0  0  0  0
    4.8002   -5.4272    0.0000 C   0  0  0  0  0  0  0  0  0  0  0  0
    0.0000   -2.5667    0.0000 C   0  0  0  0  0  0  0  0  0  0  0  0
  1  2  1  0
  1  3  2  0
  1  6  1  0
  2  8  1  0
  3  9  1  0
  3 23  1  0
  4  5  1  0
  4 14  1  0
  4 17  1  1
  5 13  1  1
  5 10  1  0
  6  7  1  0
  6 13  1  6
  7 19  1  0
  7 28  1  0
  8 26  2  0
  8  9  1  0
  9 27  2  0
 10 22  1  1
 10 19  1  0
 11 22  1  0
 11 18  1  1
 11 14  1  0
 12 18  1  0
 12 15  1  0
 12 29  2  0
 14 34  1  6
 15 24  1  0
 15 25  2  0
 16 21  2  0
 16 32  1  0
 16 20  1  0
 17 30  2  0
 17 35  1  0
 20 24  2  0
 20 36  1  0
 21 25  1  0
 21 37  1  0
 23 28  1  0
 26 31  1  0
 27 33  1  0
 31 38  1  0
 31 33  2  0
 32 39  1  0
 34 40  1  0
 35 43  1  0
 36 41  1  0
 37 42  1  0
 38 44  1  0
M  END
>  <Formula>  (18) 
C33H40N2O9

>  <FW>  (18) 
608.6787

>  <DSSTox_CID>  (18) 
1237

>  <NR-AR>  (18) 
0

>  <NR-AR-LBD>  (18) 
0

>  <NR-ER-LBD>  (18) 
1

>  <NR-AhR>  (18) 
1

>  <SR-ATAD5>  (18) 
0

>  <SR-p53>  (18) 
0

$$$$
NCGC00159508-02
     RDKit          2D

 35 36  0  0  0  0  0  0  0  0999 V2000
    0.0000   -3.0186    0.0000 Na  0  0  0  0  0 15  0  0  0  0  0  0
    0.0000   -3.8436    0.0000 Na  0  0  0  0  0 15  0  0  0  0  0  0
    1.9578   -2.8287    0.0000 O   0  0  0  0  0  0  0  0  0  0  0  0
    2.2394   -2.0495    0.0000 C   0  0  0  0  0  0  0  0  0  0  0  0
    1.7090   -1.4209    0.0000 O   0  0  0  0  0  0  0  0  0  0  0  0
    3.0513   -1.9120    0.0000 C   0  0  0  0  0  0  0  0  0  0  0  0
    3.1954   -1.0935    0.0000 C   0  0  0  0  0  0  0  0  0  0  0  0
    2.5668   -0.5631    0.0000 Cl  0  0  0  0  0  0  0  0  0  0  0  0
    3.9746   -0.8119    0.0000 C   0  0  0  0  0  0  0  0  0  0  0  0
    4.1187    0.0000    0.0000 Cl  0  0  0  0  0  0  0  0  0  0  0  0
    4.6032   -1.3423    0.0000 C   0  0  0  0  0  0  0  0  0  0  0  0
    5.3824   -1.0608    0.0000 Cl  0  0  0  0  0  0  0  0  0  0  0  0
    4.4657   -2.1543    0.0000 C   0  0  0  0  0  0  0  0  0  0  0  0
    5.0943   -2.6912    0.0000 Cl  0  0  0  0  0  0  0  0  0  0  0  0
    3.6865   -2.4424    0.0000 C   0  0  0  0  0  0  0  0  0  0  0  0
    3.6865   -3.5163    0.0000 C   0  0  0  0  0  0  0  0  0  0  0  0
    4.4002   -3.9288    0.0000 C   0  0  0  0  0  0  0  0  0  0  0  0
    5.1205   -3.5163    0.0000 C   0  0  0  0  0  0  0  0  0  0  0  0
    5.8342   -3.9288    0.0000 C   0  0  0  0  0  0  0  0  0  0  0  0
    6.5480   -3.5163    0.0000 I   0  0  0  0  0  0  0  0  0  0  0  0
    5.8342   -4.7538    0.0000 C   0  0  0  0  0  0  0  0  0  0  0  0
    6.5480   -5.1663    0.0000 O   0  0  0  0  0  0  0  0  0  0  0  0
    5.1205   -5.1663    0.0000 C   0  0  0  0  0  0  0  0  0  0  0  0
    5.1205   -5.9914    0.0000 I   0  0  0  0  0  0  0  0  0  0  0  0
    4.4002   -4.7538    0.0000 C   0  0  0  0  0  0  0  0  0  0  0  0
    3.6865   -5.1663    0.0000 O   0  0  0  0  0  0  0  0  0  0  0  0
    2.9727   -4.7538    0.0000 C   0  0  0  0  0  0  0  0  0  0  0  0
    2.9727   -3.9288    0.0000 C   0  0  0  0  0  0  0  0  0  0  0  0
    2.2591   -3.5163    0.0000 C   0  0  0  0  0  0  0  0  0  0  0  0
    1.5387   -3.9288    0.0000 C   0  0  0  0  0  0  0  0  0  0  0  0
    0.8251   -3.5163    0.0000 I   0  0  0  0  0  0  0  0  0  0  0  0
    1.5387   -4.7538    0.0000 C   0  0  0  0  0  0  0  0  0  0  0  0
    0.8251   -5.1663    0.0000 O   0  0  0  0  0  0  0  0  0  0  0  0
    2.2591   -5.1663    0.0000 C   0  0  0  0  0  0  0  0  0  0  0  0
    2.2591   -5.9914    0.0000 I   0  0  0  0  0  0  0  0  0  0  0  0
  3  4  1  0
  4  5  2  0
  4  6  1  0
  6  7  2  0
  6 15  1  0
  7  8  1  0
  7  9  1  0
  9 10  1  0
  9 11  2  0
 11 12  1  0
 11 13  1  0
 13 14  1  0
 13 15  2  0
 15 16  1  0
 16 17  1  0
 16 28  2  0
 17 18  2  0
 17 25  1  0
 18 19  1  0
 19 20  1  0
 19 21  2  0
 21 22  1  0
 21 23  1  0
 23 24  1  0
 23 25  2  0
 25 26  1  0
 26 27  1  0
 27 28  1  0
 27 34  2  0
 28 29  1  0
 29 30  2  0
 30 31  1  0
 30 32  1  0
 32 33  2  0
 32 34  1  0
 34 35  1  0
M  CHG  4   1   1   2   1   3  -1  22  -1
M  END
>  <Formula>  (19) 
C20H2Cl4I4Na2O5

>  <FW>  (19) 
1017.6363 (22.9892+22.9892+971.6579)

>  <DSSTox_CID>  (19) 
2814

>  <NR-Aromatase>  (19) 
0

>  <NR-AR>  (19) 
1

>  <NR-AR-LBD>  (19) 
0

>  <NR-ER-LBD>  (19) 
0

>  <NR-PPAR-gamma>  (19) 
0

>  <NR-AhR>  (19) 
1

>  <SR-ATAD5>  (19) 
0

$$$$
NCGC00164604-01
     RDKit          2D

 31 32  0  0  1  0  0  0  0  0999 V2000
    0.4295    0.0000    0.0000 Na  0  0  0  0  0 15  0  0  0  0  0  0
    0.0000   -0.9294    0.0000 O   0  0  0  0  0  0  0  0  0  0  0  0
    0.8238   -0.9294    0.0000 C   0  0  0  0  0  0  0  0  0  0  0  0
    1.2322   -1.6335    0.0000 C   0  0  0  0  0  0  0  0  0  0  0  0
    2.0630   -1.6335    0.0000 C   0  0  0  0  0  0  0  0  0  0  0  0
    2.4714   -2.3517    0.0000 C   0  0  0  0  0  0  0  0  0  0  0  0
    3.2951   -2.3517    0.0000 C   0  0  0  0  0  0  0  0  0  0  0  0
    3.7176   -3.0698    0.0000 C   0  0  0  0  0  0  0  0  0  0  0  0
    3.2951   -3.7810    0.0000 C   0  0  0  0  0  0  0  0  0  0  0  0
    3.7176   -4.4991    0.0000 C   0  0  0  0  0  0  0  0  0  0  0  0
    3.3726   -5.2455    0.0000 C   0  0  0  0  0  0  0  0  0  0  0  0
    3.9922   -5.8088    0.0000 C   0  0  0  0  0  0  0  0  0  0  0  0
    4.7103   -5.3863    0.0000 C   0  0  0  0  0  0  0  0  0  0  0  0
    4.5344   -4.5836    0.0000 N   0  0  0  0  0  0  0  0  0  0  0  0
    5.0906   -3.9711    0.0000 C   0  0  0  0  0  0  0  0  0  0  0  0
    5.8932   -4.1400    0.0000 C   0  0  0  0  0  0  0  0  0  0  0  0
    4.8301   -3.1895    0.0000 C   0  0  0  0  0  0  0  0  0  0  0  0
    5.4144   -5.8088    0.0000 C   0  0  0  0  0  0  0  0  0  0  0  0
    5.4144   -6.6325    0.0000 C   0  0  0  0  0  0  0  0  0  0  0  0
    4.7103   -7.0409    0.0000 C   0  0  0  0  0  0  0  0  0  0  0  0
    3.9922   -6.6325    0.0000 C   0  0  0  0  0  0  0  0  0  0  0  0
    2.5699   -5.4144    0.0000 C   0  0  0  0  0  0  0  0  0  0  0  0
    2.3235   -6.2030    0.0000 C   0  0  0  0  0  0  0  0  0  0  0  0
    1.5138   -6.3720    0.0000 C   0  0  0  0  0  0  0  0  0  0  0  0
    0.9576   -5.7665    0.0000 C   0  0  0  0  0  0  0  0  0  0  0  0
    1.2040   -4.9779    0.0000 C   0  0  0  0  0  0  0  0  0  0  0  0
    2.0137   -4.8089    0.0000 C   0  0  0  0  0  0  0  0  0  0  0  0
    0.1479   -5.9355    0.0000 F   0  0  0  0  0  0  0  0  0  0  0  0
    3.7176   -1.6335    0.0000 O   0  0  0  0  0  0  0  0  0  0  0  0
    2.4714   -0.9294    0.0000 O   0  0  0  0  0  0  0  0  0  0  0  0
    1.2322   -0.2112    0.0000 O   0  0  0  0  0  0  0  0  0  0  0  0
  2  3  2  0
  3  4  1  0
  3 31  1  0
  4  5  1  0
  5  6  1  0
  5 30  1  6
  6  7  1  0
  7  8  1  0
  7 29  1  6
  8  9  2  0
  9 10  1  0
 10 11  2  0
 10 14  1  0
 11 12  1  0
 11 22  1  0
 12 13  2  0
 12 21  1  0
 13 14  1  0
 13 18  1  0
 14 15  1  0
 15 16  1  0
 15 17  1  0
 18 19  2  0
 19 20  1  0
 20 21  2  0
 22 23  2  0
 22 27  1  0
 23 24  1  0
 24 25  2  0
 25 26  1  0
 25 28  1  0
 26 27  2  0
M  CHG  2   1   1  31  -1
M  END
>  <Formula>  (20) 
C24H25FNNaO4

>  <FW>  (20) 
433.4478 (22.9892+410.4586)

>  <DSSTox_CID>  (20) 
24758

>  <NR-Aromatase>  (20) 
1

>  <NR-AR>  (20) 
0

>  <NR-ER>  (20) 
0

>  <NR-ER-LBD>  (20) 
0

>  <NR-AhR>  (20) 
1

>  <SR-ATAD5>  (20) 
0

>  <SR-MMP>  (20) 
1

>  <SR-p53>  (20) 
0

$$$$
NCGC00257389-01
     RDKit          2D

 25 28  0  0  0  0  0  0  0  0999 V2000
    3.7446   -0.2399    0.0000 N   0  0  0  0  0  0  0  0  0  0  0  0
    4.4584   -0.5910    0.0000 C   0  0  0  0  0  0  0  0  0  0  0  0
    4.6281   -1.4042    0.0000 C   0  0  0  0  0  0  0  0  0  0  0  0
    4.1132   -2.0186    0.0000 N   0  0  0  0  0  0  0  0  0  0  0  0
    3.2999   -2.0186    0.0000 C   0  0  0  0  0  0  0  0  0  0  0  0
    2.7909   -1.3633    0.0000 C   0  0  0  0  0  0  0  0  0  0  0  0
    3.0015   -0.5675    0.0000 C   0  0  0  0  0  0  0  0  0  0  0  0
    2.3931    0.0000    0.0000 C   0  0  0  0  0  0  0  0  0  0  0  0
    1.5973   -0.2224    0.0000 C   0  0  0  0  0  0  0  0  0  0  0  0
    1.3925   -1.0181    0.0000 C   0  0  0  0  0  0  0  0  0  0  0  0
    1.9952   -1.5622    0.0000 C   0  0  0  0  0  0  0  0  0  0  0  0
    5.1957   -0.1697    0.0000 N   0  0  0  0  0  0  0  0  0  0  0  0
    5.8334   -0.7548    0.0000 N   0  0  0  0  0  0  0  0  0  0  0  0
    5.4648   -1.5213    0.0000 C   0  0  0  0  0  0  0  0  0  0  0  0
    2.9313   -4.2244    0.0000 C   0  0  0  0  0  0  0  0  0  0  0  0
    2.1063   -4.2244    0.0000 C   0  0  0  0  0  0  0  0  0  0  0  0
    1.6909   -3.5106    0.0000 C   0  0  0  0  0  0  0  0  0  0  0  0
    2.1063   -2.7968    0.0000 C   0  0  0  0  0  0  0  0  0  0  0  0
    2.9313   -2.7968    0.0000 C   0  0  0  0  0  0  0  0  0  0  0  0
    3.3350   -3.5106    0.0000 C   0  0  0  0  0  0  0  0  0  0  0  0
    4.1600   -3.5106    0.0000 Cl  0  0  0  0  0  0  0  0  0  0  0  0
    5.8510   -2.2292    0.0000 C   0  0  0  0  0  0  0  0  0  0  0  0
    0.6085   -1.2521    0.0000 N   0  0  0  0  0  0  0  0  0  0  0  0
    0.0000   -0.6963    0.0000 O   0  0  0  0  0  0  0  0  0  0  0  0
    0.4095   -2.0595    0.0000 O   0  0  0  0  0  0  0  0  0  0  0  0
  1  2  1  0
  1  7  1  0
  2  3  1  0
  2 12  2  0
  3  4  1  0
  3 14  2  0
  4  5  2  0
  5  6  1  0
  5 19  1  0
  6  7  2  0
  6 11  1  0
  7  8  1  0
  8  9  2  0
  9 10  1  0
 10 11  2  0
 10 23  1  0
 12 13  1  0
 13 14  1  0
 14 22  1  0
 15 20  2  0
 15 16  1  0
 16 17  2  0
 17 18  1  0
 18 19  2  0
 19 20  1  0
 20 21  1  0
 23 24  1  0
 23 25  2  0
M  CHG  2  23   1  24  -1
M  END
>  <Formula>  (21) 
C17H12ClN5O2

>  <FW>  (21) 
353.7625

>  <DSSTox_CID>  (21) 
28479

>  <NR-Aromatase>  (21) 
1

>  <NR-AR>  (21) 
0

>  <NR-AR-LBD>  (21) 
0

>  <NR-ER-LBD>  (21) 
1

>  <NR-AhR>  (21) 
1

>  <SR-ARE>  (21) 
1

>  <SR-ATAD5>  (21) 
1

>  <SR-p53>  (21) 
1

$$$$
NCGC00260468-01
     RDKit          2D

 30 34  0  0  1  0  0  0  0  0999 V2000
    5.7835   -1.9836    0.0000 C   0  0  0  0  0  0  0  0  0  0  0  0
    4.9590   -1.9836    0.0000 O   0  0  0  0  0  0  0  0  0  0  0  0
    4.5437   -2.7027    0.0000 C   0  0  0  0  0  0  0  0  0  0  0  0
    4.9590   -3.4155    0.0000 C   0  0  0  0  0  0  0  0  0  0  0  0
    5.7835   -3.4155    0.0000 O   0  0  0  0  0  0  0  0  0  0  0  0
    6.1988   -4.1346    0.0000 C   0  0  0  0  0  0  0  0  0  0  0  0
    4.5437   -4.1346    0.0000 C   0  0  0  0  0  0  0  0  0  0  0  0
    3.7193   -4.1346    0.0000 C   0  0  0  0  0  0  0  0  0  0  0  0
    3.3040   -3.4155    0.0000 C   0  0  0  0  0  0  0  0  0  0  0  0
    3.7193   -2.7027    0.0000 C   0  0  0  0  0  0  0  0  0  0  0  0
    2.4795   -3.4155    0.0000 C   0  0  0  0  0  0  0  0  0  0  0  0
    2.0642   -4.1346    0.0000 C   0  0  0  0  0  0  0  0  0  0  0  0
    1.2398   -4.1346    0.0000 C   0  0  0  0  0  0  0  0  0  0  0  0
    0.9856   -4.9219    0.0000 C   0  0  0  0  0  0  0  0  0  0  0  0
    1.6551   -5.4053    0.0000 O   0  0  0  0  0  0  0  0  0  0  0  0
    2.3246   -4.9219    0.0000 C   0  0  0  0  0  0  0  0  0  0  0  0
    3.1056   -5.1760    0.0000 O   0  0  0  0  0  0  0  0  0  0  0  0
    0.8244   -3.4155    0.0000 C   0  0  0  0  0  0  0  0  0  0  0  0
    0.0000   -3.4155    0.0000 O   0  0  0  0  0  0  0  0  0  0  0  0
    1.2398   -2.7027    0.0000 C   0  0  0  0  0  0  0  0  0  0  0  0
    0.8244   -1.9836    0.0000 C   0  0  0  0  0  0  0  0  0  0  0  0
    1.2398   -1.2708    0.0000 C   0  0  0  0  0  0  0  0  0  0  0  0
    2.0642   -1.2708    0.0000 C   0  0  0  0  0  0  0  0  0  0  0  0
    2.3246   -0.4835    0.0000 O   0  0  0  0  0  0  0  0  0  0  0  0
    1.6551    0.0000    0.0000 C   0  0  0  0  0  0  0  0  0  0  0  0
    0.9856   -0.4835    0.0000 O   0  0  0  0  0  0  0  0  0  0  0  0
    2.4795   -1.9836    0.0000 C   0  0  0  0  0  0  0  0  0  0  0  0
    2.0642   -2.7027    0.0000 C   0  0  0  0  0  0  0  0  0  0  0  0
    4.9590   -4.8475    0.0000 O   0  0  0  0  0  0  0  0  0  0  0  0
    5.7835   -4.8475    0.0000 C   0  0  0  0  0  0  0  0  0  0  0  0
  1  2  1  0
  2  3  1  0
  3  4  2  0
  3 10  1  0
  4  5  1  0
  4  7  1  0
  5  6  1  0
  7  8  2  0
  7 29  1  0
  8  9  1  0
  9 10  2  0
 11  9  1  1
 11 12  1  0
 11 28  1  0
 12 13  1  0
 12 16  1  1
 13 14  1  6
 13 18  1  0
 14 15  1  0
 15 16  1  0
 16 17  2  0
 18 19  1  1
 18 20  1  0
 20 21  2  0
 20 28  1  0
 21 22  1  0
 22 23  2  0
 22 26  1  0
 23 24  1  0
 23 27  1  0
 24 25  1  0
 25 26  1  0
 27 28  2  0
 29 30  1  0
M  END
>  <Formula>  (22) 
C22H22O8

>  <FW>  (22) 
414.4053

>  <DSSTox_CID>  (22) 
25645

>  <NR-Aromatase>  (22) 
0

>  <NR-AR>  (22) 
0

>  <NR-ER>  (22) 
0

>  <NR-AhR>  (22) 
1

>  <SR-HSE>  (22) 
0

>  <SR-MMP>  (22) 
1

>  <SR-p53>  (22) 
0

$$$$
NCGC00096122-03
     RDKit          2D

 19 21  0  0  1  0  0  0  0  0999 V2000
    0.0000   -3.8699    0.0000 O   0  0  0  0  0  0  0  0  0  0  0  0
    0.6050   -3.3049    0.0000 C   0  0  0  0  0  0  0  0  0  0  0  0
    1.3900   -3.5500    0.0000 C   0  0  0  0  0  0  0  0  0  0  0  0
    2.0550   -3.0550    0.0000 O   0  0  0  0  0  0  0  0  0  0  0  0
    2.7300   -3.5299    0.0000 C   0  0  0  0  0  0  0  0  0  0  0  0
    2.4799   -4.3249    0.0000 C   0  0  0  0  0  0  0  0  0  0  0  0
    2.9650   -4.9900    0.0000 O   0  0  0  0  0  0  0  0  0  0  0  0
    1.6550   -4.3350    0.0000 C   0  0  0  0  0  0  0  0  0  0  0  0
    1.1700   -4.9999    0.0000 O   0  0  0  0  0  0  0  0  0  0  0  0
    2.7000   -2.3099    0.0000 N   0  0  0  0  0  0  0  0  0  0  0  0
    3.1850   -1.6450    0.0000 C   0  0  0  0  0  0  0  0  0  0  0  0
    2.7000   -0.9800    0.0000 N   0  0  0  0  0  0  0  0  0  0  0  0
    1.9150   -1.2400    0.0000 C   0  0  0  0  0  0  0  0  0  0  0  0
    1.9150   -2.0650    0.0000 C   0  0  0  0  0  0  0  0  0  0  0  0
    1.2000   -2.4700    0.0000 N   0  0  0  0  0  0  0  0  0  0  0  0
    0.4850   -2.0650    0.0000 C   0  0  0  0  0  0  0  0  0  0  0  0
    0.4950   -1.2400    0.0000 N   0  0  0  0  0  0  0  0  0  0  0  0
    1.2100   -0.8250    0.0000 C   0  0  0  0  0  0  0  0  0  0  0  0
    1.2000    0.0000    0.0000 S   0  0  0  0  0  0  0  0  0  0  0  0
  1  2  1  0
  3  2  1  1
  3  4  1  0
  3  8  1  0
  4  5  1  0
  5  6  1  0
  5 10  1  1
  6  7  1  6
  6  8  1  0
  8  9  1  6
 10 11  1  0
 10 14  1  0
 11 12  2  0
 12 13  1  0
 13 14  2  0
 13 18  1  0
 14 15  1  0
 15 16  2  0
 16 17  1  0
 17 18  2  0
 18 19  1  0
M  END
>  <Formula>  (23) 
C10H12N4O4S

>  <FW>  (23) 
284.2917

>  <DSSTox_CID>  (23) 
26019

>  <NR-AR>  (23) 
0

>  <NR-AR-LBD>  (23) 
0

>  <NR-ER>  (23) 
0

>  <NR-ER-LBD>  (23) 
0

>  <NR-AhR>  (23) 
1

>  <SR-ATAD5>  (23) 
0

>  <SR-p53>  (23) 
1

$$$$
NCGC00166249-02
     RDKit          2D

 29 33  0  0  0  0  0  0  0  0999 V2000
    2.8646   -2.4979    0.0000 C   0  0  0  0  0  0  0  0  0  0  0  0
    3.5808   -2.0682    0.0000 C   0  0  0  0  0  0  0  0  0  0  0  0
    2.1485   -2.0682    0.0000 C   0  0  0  0  0  0  0  0  0  0  0  0
    2.2344   -2.9735    0.0000 C   0  0  0  0  0  0  0  0  0  0  0  0
    3.5120   -2.9849    0.0000 O   0  0  0  0  0  0  0  0  0  0  0  0
    3.5808   -1.2432    0.0000 C   0  0  0  0  0  0  0  0  0  0  0  0
    4.2855   -2.4979    0.0000 C   0  0  0  0  0  0  0  0  0  0  0  0
    2.1485   -1.2432    0.0000 C   0  0  0  0  0  0  0  0  0  0  0  0
    1.4323   -2.4979    0.0000 C   0  0  0  0  0  0  0  0  0  0  0  0
    2.4693   -3.7469    0.0000 C   0  0  0  0  0  0  0  0  0  0  0  0
    1.4438   -2.8188    0.0000 C   0  0  0  0  0  0  0  0  0  0  0  0
    3.2714   -3.7469    0.0000 C   0  0  0  0  0  0  0  0  0  0  0  0
    2.8532   -0.8250    0.0000 O   0  0  0  0  0  0  0  0  0  0  0  0
    4.2855   -0.8250    0.0000 C   0  0  0  0  0  0  0  0  0  0  0  0
    4.9902   -2.0682    0.0000 C   0  0  0  0  0  0  0  0  0  0  0  0
    1.4323   -0.8250    0.0000 C   0  0  0  0  0  0  0  0  0  0  0  0
    0.7162   -2.0682    0.0000 C   0  0  0  0  0  0  0  0  0  0  0  0
    1.9479   -4.3485    0.0000 C   0  0  0  0  0  0  0  0  0  0  0  0
    0.9281   -3.3917    0.0000 C   0  0  0  0  0  0  0  0  0  0  0  0
    3.7813   -4.4058    0.0000 O   0  0  0  0  0  0  0  0  0  0  0  0
    4.9902   -1.2432    0.0000 C   0  0  0  0  0  0  0  0  0  0  0  0
    4.2855    0.0000    0.0000 I   0  0  0  0  0  0  0  0  0  0  0  0
    5.7064   -2.4693    0.0000 I   0  0  0  0  0  0  0  0  0  0  0  0
    0.7162   -1.2432    0.0000 C   0  0  0  0  0  0  0  0  0  0  0  0
    1.4323    0.0000    0.0000 I   0  0  0  0  0  0  0  0  0  0  0  0
    0.0000   -2.4751    0.0000 I   0  0  0  0  0  0  0  0  0  0  0  0
    1.1687   -4.2053    0.0000 C   0  0  0  0  0  0  0  0  0  0  0  0
    5.7292   -0.8250    0.0000 O   0  0  0  0  0  0  0  0  0  0  0  0
    0.0115   -0.8250    0.0000 O   0  0  0  0  0  0  0  0  0  0  0  0
  1  2  1  0
  1  3  1  0
  1  4  1  0
  1  5  1  0
  2  6  1  0
  2  7  2  0
  3  8  2  0
  3  9  1  0
  4 10  2  0
  4 11  1  0
  5 12  1  0
  6 13  1  0
  6 14  2  0
  7 15  1  0
  8 16  1  0
  8 13  1  0
  9 17  2  0
 10 18  1  0
 10 12  1  0
 11 19  2  0
 12 20  2  0
 14 21  1  0
 14 22  1  0
 15 23  1  0
 15 21  2  0
 16 24  2  0
 16 25  1  0
 17 26  1  0
 17 24  1  0
 18 27  2  0
 19 27  1  0
 21 28  1  0
 24 29  1  0
M  END
>  <Formula>  (24) 
C20H8I4O5

>  <FW>  (24) 
835.8924

>  <DSSTox_CID>  (24) 
24207

>  <NR-AR>  (24) 
0

>  <NR-AR-LBD>  (24) 
0

>  <NR-ER-LBD>  (24) 
0

>  <NR-PPAR-gamma>  (24) 
0

>  <NR-AhR>  (24) 
1

>  <SR-ATAD5>  (24) 
0

>  <SR-p53>  (24) 
0

$$$$
NCGC00259944-01
     RDKit          2D

 44 49  0  0  1  0  0  0  0  0999 V2000
    3.3797   -1.2931    0.0000 C   0  0  0  0  0  0  0  0  0  0  0  0
    2.7430   -1.6360    0.0000 N   0  0  0  0  0  0  0  0  0  0  0  0
    3.3797   -0.4507    0.0000 C   0  0  0  0  0  0  0  0  0  0  0  0
    4.8002   -3.7618    0.0000 C   0  0  0  0  0  0  0  0  0  0  0  0
    4.8002   -2.9487    0.0000 C   0  0  0  0  0  0  0  0  0  0  0  0
    4.0949   -1.7046    0.0000 C   0  0  0  0  0  0  0  0  0  0  0  0
    4.8002   -1.2931    0.0000 N   0  0  0  0  0  0  0  0  0  0  0  0
    2.0866   -1.2049    0.0000 C   0  0  0  0  0  0  0  0  0  0  0  0
    2.0866   -0.4507    0.0000 C   0  0  0  0  0  0  0  0  0  0  0  0
    5.5056   -2.5274    0.0000 C   0  0  0  0  0  0  0  0  0  0  0  0
    6.2304   -3.7618    0.0000 C   0  0  0  0  0  0  0  0  0  0  0  0
    7.6509   -3.7520    0.0000 C   0  0  0  0  0  0  0  0  0  0  0  0
    4.0949   -2.5274    0.0000 C   0  0  0  0  0  0  0  0  0  0  0  0
    5.5056   -4.1732    0.0000 C   0  0  0  0  0  0  0  0  0  0  0  0
    7.6509   -2.9291    0.0000 C   0  0  0  0  0  0  0  0  0  0  0  0
    7.6509   -1.2736    0.0000 C   0  0  0  0  0  0  0  0  0  0  0  0
    4.0949   -4.1928    0.0000 C   0  0  0  0  0  0  0  0  0  0  0  0
    6.9358   -4.1732    0.0000 O   0  0  0  0  0  0  0  0  0  0  0  0
    5.5056   -1.7046    0.0000 C   0  0  0  0  0  0  0  0  0  0  0  0
    6.9260   -1.6850    0.0000 C   0  0  0  0  0  0  0  0  0  0  0  0
    8.3661   -1.6850    0.0000 C   0  0  0  0  0  0  0  0  0  0  0  0
    6.2304   -2.9487    0.0000 C   0  0  0  0  0  0  0  0  0  0  0  0
    4.0949   -0.0392    0.0000 C   0  0  0  0  0  0  0  0  0  0  0  0
    6.9260   -2.5079    0.0000 C   0  0  0  0  0  0  0  0  0  0  0  0
    8.3661   -2.5079    0.0000 C   0  0  0  0  0  0  0  0  0  0  0  0
    1.3715   -1.6654    0.0000 C   0  0  0  0  0  0  0  0  0  0  0  0
    1.3715    0.0000    0.0000 C   0  0  0  0  0  0  0  0  0  0  0  0
    4.8002   -0.4507    0.0000 C   0  0  0  0  0  0  0  0  0  0  0  0
    8.3661   -4.1635    0.0000 O   0  0  0  0  0  0  0  0  0  0  0  0
    3.3797   -3.7814    0.0000 O   0  0  0  0  0  0  0  0  0  0  0  0
    0.6759   -1.2539    0.0000 C   0  0  0  0  0  0  0  0  0  0  0  0
    7.6509   -0.4408    0.0000 O   0  0  0  0  0  0  0  0  0  0  0  0
    0.6759   -0.4114    0.0000 C   0  0  0  0  0  0  0  0  0  0  0  0
    5.5056   -5.0059    0.0000 O   0  0  0  0  0  0  0  0  0  0  0  0
    4.0949   -5.0059    0.0000 O   0  0  0  0  0  0  0  0  0  0  0  0
    6.2109   -1.2736    0.0000 O   0  0  0  0  0  0  0  0  0  0  0  0
    9.0812   -1.2736    0.0000 O   0  0  0  0  0  0  0  0  0  0  0  0
    0.0000   -1.7241    0.0000 O   0  0  0  0  0  0  0  0  0  0  0  0
    8.3661   -0.0196    0.0000 C   0  0  0  0  0  0  0  0  0  0  0  0
    6.2304   -5.4272    0.0000 C   0  0  0  0  0  0  0  0  0  0  0  0
    6.2109   -0.4408    0.0000 C   0  0  0  0  0  0  0  0  0  0  0  0
    9.7963   -1.6850    0.0000 C   0  0  0  0  0  0  0  0  0  0  0  0
    4.8002   -5.4272    0.0000 C   0  0  0  0  0  0  0  0  0  0  0  0
    0.0000   -2.5667    0.0000 C   0  0  0  0  0  0  0  0  0  0  0  0
  1  2  1  0
  1  3  2  0
  1  6  1  0
  2  8  1  0
  3  9  1  0
  3 23  1  0
  4  5  1  0
  4 14  1  0
  4 17  1  1
  5 13  1  1
  5 10  1  0
  6  7  1  0
  6 13  1  6
  7 19  1  0
  7 28  1  0
  8 26  2  0
  8  9  1  0
  9 27  2  0
 10 22  1  1
 10 19  1  0
 11 22  1  0
 11 18  1  1
 11 14  1  0
 12 18  1  0
 12 15  1  0
 12 29  2  0
 14 34  1  6
 15 24  1  0
 15 25  2  0
 16 21  2  0
 16 32  1  0
 16 20  1  0
 17 30  2  0
 17 35  1  0
 20 24  2  0
 20 36  1  0
 21 25  1  0
 21 37  1  0
 23 28  1  0
 26 31  1  0
 27 33  1  0
 31 38  1  0
 31 33  2  0
 32 39  1  0
 34 40  1  0
 35 43  1  0
 36 41  1  0
 37 42  1  0
 38 44  1  0
M  END
>  <Formula>  (25) 
C33H40N2O9

>  <FW>  (25) 
608.6787

>  <DSSTox_CID>  (25) 
1237

>  <NR-AR>  (25) 
0

>  <NR-AR-LBD>  (25) 
0

>  <NR-AhR>  (25) 
1

>  <SR-ATAD5>  (25) 
0

>  <SR-HSE>  (25) 
0

>  <SR-MMP>  (25) 
1

>  <SR-p53>  (25) 
0

$$$$
NCGC00256408-01
     RDKit          2D

 27 29  0  0  1  0  0  0  0  0999 V2000
    3.5690   -4.0334    0.0000 C   0  0  0  0  0  0  0  0  0  0  0  0
    3.5690   -4.8707    0.0000 C   0  0  0  0  0  0  0  0  0  0  0  0
    2.8601   -3.6240    0.0000 N   0  0  0  0  0  0  0  0  0  0  0  0
    4.2901   -3.6240    0.0000 N   0  0  0  0  0  0  0  0  0  0  0  0
    2.8601   -5.2618    0.0000 N   0  0  0  0  0  0  0  0  0  0  0  0
    5.0052   -4.8707    0.0000 N   0  0  0  0  0  0  0  0  0  0  0  0
    4.2901   -5.2618    0.0000 C   0  0  0  0  0  0  0  0  0  0  0  0
    5.0052   -4.0334    0.0000 C   0  0  0  0  0  0  0  0  0  0  0  0
    2.1512   -4.0334    0.0000 C   0  0  0  0  0  0  0  0  0  0  0  0
    2.1512   -4.8707    0.0000 C   0  0  0  0  0  0  0  0  0  0  0  0
    1.4300   -3.6240    0.0000 C   0  0  0  0  0  0  0  0  0  0  0  0
    1.4300   -5.2618    0.0000 C   0  0  0  0  0  0  0  0  0  0  0  0
    0.7211   -4.0334    0.0000 C   0  0  0  0  0  0  0  0  0  0  0  0
    0.7211   -4.8707    0.0000 C   0  0  0  0  0  0  0  0  0  0  0  0
    4.2901   -6.1113    0.0000 O   0  0  0  0  0  0  0  0  0  0  0  0
    5.7263   -3.6240    0.0000 O   0  0  0  0  0  0  0  0  0  0  0  0
    0.0000   -3.6240    0.0000 C   0  0  0  0  0  0  0  0  0  0  0  0
    0.0000   -5.2863    0.0000 C   0  0  0  0  0  0  0  0  0  0  0  0
    4.2901   -0.3239    0.0000 C   0  0  0  0  0  0  0  0  0  0  0  0
    4.2901   -1.1489    0.0000 C   0  0  0  0  0  0  0  0  0  0  0  0
    3.5690   -1.5584    0.0000 C   0  0  0  0  0  0  0  0  0  0  0  0
    3.5690   -2.3834    0.0000 C   0  0  0  0  0  0  0  0  0  0  0  0
    2.8601   -2.7990    0.0000 C   0  0  0  0  0  0  0  0  0  0  0  0
    4.8463    0.0000    0.0000 O   0  0  0  0  0  0  0  0  0  0  0  0
    4.9929   -1.5584    0.0000 O   0  0  0  0  0  0  0  0  0  0  0  0
    2.8601   -1.1489    0.0000 O   0  0  0  0  0  0  0  0  0  0  0  0
    4.2901   -2.7990    0.0000 O   0  0  0  0  0  0  0  0  0  0  0  0
  1  2  1  0
  1  3  1  0
  1  4  2  0
  2  5  2  0
  2  7  1  0
  3  9  1  0
  3 23  1  0
  4  8  1  0
  5 10  1  0
  6  8  1  0
  6  7  1  0
  7 15  2  0
  8 16  2  0
  9 10  2  0
  9 11  1  0
 10 12  1  0
 11 13  2  0
 12 14  2  0
 13 14  1  0
 13 17  1  0
 14 18  1  0
 19 20  1  0
 19 24  1  0
 20 21  1  0
 20 25  1  1
 21 22  1  0
 21 26  1  6
 22 23  1  0
 22 27  1  1
M  END
>  <Formula>  (26) 
C17H20N4O6

>  <FW>  (26) 
376.3639

>  <DSSTox_CID>  (26) 
1777

>  <NR-Aromatase>  (26) 
0

>  <NR-AR>  (26) 
0

>  <NR-ER>  (26) 
0

>  <NR-ER-LBD>  (26) 
0

>  <NR-AhR>  (26) 
1

>  <SR-ATAD5>  (26) 
0

>  <SR-HSE>  (26) 
0

>  <SR-MMP>  (26) 
1

>  <SR-p53>  (26) 
0

$$$$
NCGC00015714-09
     RDKit          2D

 30 31  0  0  0  0  0  0  0  0999 V2000
    2.1447   -1.2353    0.0000 C   0  0  0  0  0  0  0  0  0  0  0  0
    2.8595   -1.6471    0.0000 C   0  0  0  0  0  0  0  0  0  0  0  0
    2.8595   -2.4764    0.0000 C   0  0  0  0  0  0  0  0  0  0  0  0
    3.5744   -2.8881    0.0000 C   0  0  0  0  0  0  0  0  0  0  0  0
    4.2893   -2.4764    0.0000 C   0  0  0  0  0  0  0  0  0  0  0  0
    4.2893   -1.6471    0.0000 C   0  0  0  0  0  0  0  0  0  0  0  0
    5.0042   -1.2353    0.0000 O   0  0  0  0  0  0  0  0  0  0  0  0
    3.5744   -1.2353    0.0000 O   0  0  0  0  0  0  0  0  0  0  0  0
    3.5744   -0.4118    0.0000 C   0  0  0  0  0  0  0  0  0  0  0  0
    2.8595    0.0000    0.0000 C   0  0  0  0  0  0  0  0  0  0  0  0
    4.2893    0.0000    0.0000 C   0  0  0  0  0  0  0  0  0  0  0  0
    5.0042   -2.8881    0.0000 C   0  0  0  0  0  0  0  0  0  0  0  0
    5.7191   -2.4764    0.0000 C   0  0  0  0  0  0  0  0  0  0  0  0
    5.0042   -3.7117    0.0000 N   0  0  0  0  0  0  0  0  0  0  0  0
    4.2893   -4.1235    0.0000 C   0  0  0  0  0  0  0  0  0  0  0  0
    4.2893   -4.9528    0.0000 C   0  0  0  0  0  0  0  0  0  0  0  0
    3.5744   -3.7117    0.0000 C   0  0  0  0  0  0  0  0  0  0  0  0
    2.8595   -4.1235    0.0000 C   0  0  0  0  0  0  0  0  0  0  0  0
    2.1447   -3.7117    0.0000 O   0  0  0  0  0  0  0  0  0  0  0  0
    2.8595   -4.9528    0.0000 O   0  0  0  0  0  0  0  0  0  0  0  0
    2.1447   -5.3645    0.0000 C   0  0  0  0  0  0  0  0  0  0  0  0
    1.4298   -4.9528    0.0000 C   0  0  0  0  0  0  0  0  0  0  0  0
    0.7149   -5.3645    0.0000 O   0  0  0  0  0  0  0  0  0  0  0  0
    0.0000   -4.9528    0.0000 C   0  0  0  0  0  0  0  0  0  0  0  0
    2.1447   -2.8881    0.0000 C   0  0  0  0  0  0  0  0  0  0  0  0
    1.4298   -2.4764    0.0000 C   0  0  0  0  0  0  0  0  0  0  0  0
    0.7149   -2.8881    0.0000 N   0  0  0  0  0  0  0  0  0  0  0  0
    0.0000   -2.4764    0.0000 O   0  0  0  0  0  0  0  0  0  0  0  0
    0.7149   -3.7117    0.0000 O   0  0  0  0  0  0  0  0  0  0  0  0
    1.4298   -1.6471    0.0000 C   0  0  0  0  0  0  0  0  0  0  0  0
  1  2  2  0
  1 30  1  0
  2  3  1  0
  3  4  1  0
  3 25  2  0
  4  5  1  0
  4 17  1  0
  5  6  1  0
  5 12  2  0
  6  7  2  0
  6  8  1  0
  8  9  1  0
  9 10  1  0
  9 11  1  0
 12 13  1  0
 12 14  1  0
 14 15  1  0
 15 16  1  0
 15 17  2  0
 17 18  1  0
 18 19  2  0
 18 20  1  0
 20 21  1  0
 21 22  1  0
 22 23  1  0
 23 24  1  0
 25 26  1  0
 26 27  1  0
 26 30  2  0
 27 28  1  0
 27 29  2  0
M  CHG  2  27   1  28  -1
M  END
>  <Formula>  (27) 
C21H26N2O7

>  <FW>  (27) 
418.4403

>  <DSSTox_CID>  (27) 
3370

>  <NR-Aromatase>  (27) 
0

>  <NR-AR>  (27) 
0

>  <NR-AR-LBD>  (27) 
0

>  <NR-ER>  (27) 
0

>  <NR-ER-LBD>  (27) 
0

>  <NR-PPAR-gamma>  (27) 
0

>  <NR-AhR>  (27) 
1

>  <SR-ATAD5>  (27) 
0

>  <SR-p53>  (27) 
0

$$$$
NCGC00024749-01
     RDKit          2D

 22 24  0  0  0  0  0  0  0  0999 V2000
    2.4289   -0.9260    0.0000 C   0  0  0  0  0  0  0  0  0  0  0  0
    2.4289   -1.9150    0.0000 C   0  0  0  0  0  0  0  0  0  0  0  0
    1.5659   -0.4218    0.0000 C   0  0  0  0  0  0  0  0  0  0  0  0
    1.5659   -2.4192    0.0000 C   0  0  0  0  0  0  0  0  0  0  0  0
    0.7175   -0.9260    0.0000 C   0  0  0  0  0  0  0  0  0  0  0  0
    0.7175   -1.9150    0.0000 C   0  0  0  0  0  0  0  0  0  0  0  0
    0.0000   -2.3222    0.0000 C   0  0  0  0  0  0  0  0  0  0  0  0
    3.6264   -1.4205    0.0000 C   0  0  0  0  0  0  0  0  0  0  0  0
    4.4505   -1.4205    0.0000 C   0  0  0  0  0  0  0  0  0  0  0  0
    3.2192   -2.1235    0.0000 C   0  0  0  0  0  0  0  0  0  0  0  0
    4.8481   -2.1235    0.0000 C   0  0  0  0  0  0  0  0  0  0  0  0
    3.6264   -2.8410    0.0000 C   0  0  0  0  0  0  0  0  0  0  0  0
    4.4505   -2.8410    0.0000 C   0  0  0  0  0  0  0  0  0  0  0  0
    3.2192   -0.7030    0.0000 N   0  0  0  0  0  0  0  0  0  0  0  0
    3.6264    0.0000    0.0000 C   0  0  0  0  0  0  0  0  0  0  0  0
    4.8481   -0.7030    0.0000 N   0  0  0  0  0  0  0  0  0  0  0  0
    4.4505    0.0000    0.0000 C   0  0  0  0  0  0  0  0  0  0  0  0
    2.4628   -4.4797    0.0000 O   0  0  0  0  0  0  0  0  0  0  0  0
    2.4628   -2.7149    0.0000 C   0  0  0  0  0  0  0  0  0  0  0  0
    1.5756   -3.5973    0.0000 O   0  0  0  0  0  0  0  0  0  0  0  0
    3.3452   -3.5973    0.0000 O   0  0  0  0  0  0  0  0  0  0  0  0
    2.4628   -3.5973    0.0000 S   0  0  0  0  0  0  0  0  0  0  0  0
  1  3  2  0
  1 14  1  0
  1  2  1  0
  2  4  2  0
  2 10  1  0
  3  5  1  0
  4  6  1  0
  5  6  2  0
  6  7  1  0
  8 14  1  0
  8 10  2  0
  8  9  1  0
  9 11  1  0
  9 16  1  0
 10 12  1  0
 11 13  1  0
 12 13  1  0
 14 15  1  0
 15 17  1  0
 16 17  1  0
 18 22  1  0
 19 22  1  0
 20 22  2  0
 21 22  2  0
M  END
>  <Formula>  (28) 
C16H22N2O3S

>  <FW>  (28) 
322.4225 (226.3168+96.1057)

>  <DSSTox_CID>  (28) 
25660

>  <NR-Aromatase>  (28) 
0

>  <NR-AR>  (28) 
0

>  <NR-AR-LBD>  (28) 
0

>  <NR-ER>  (28) 
0

>  <NR-ER-LBD>  (28) 
0

>  <NR-AhR>  (28) 
1

>  <SR-ATAD5>  (28) 
0

>  <SR-p53>  (28) 
0

$$$$
NCGC00254489-01
     RDKit          2D

 44 49  0  0  1  0  0  0  0  0999 V2000
    3.3797   -1.2931    0.0000 C   0  0  0  0  0  0  0  0  0  0  0  0
    2.7430   -1.6360    0.0000 N   0  0  0  0  0  0  0  0  0  0  0  0
    3.3797   -0.4507    0.0000 C   0  0  0  0  0  0  0  0  0  0  0  0
    4.8002   -3.7618    0.0000 C   0  0  0  0  0  0  0  0  0  0  0  0
    4.8002   -2.9487    0.0000 C   0  0  0  0  0  0  0  0  0  0  0  0
    4.0949   -1.7046    0.0000 C   0  0  0  0  0  0  0  0  0  0  0  0
    4.8002   -1.2931    0.0000 N   0  0  0  0  0  0  0  0  0  0  0  0
    2.0866   -1.2049    0.0000 C   0  0  0  0  0  0  0  0  0  0  0  0
    2.0866   -0.4507    0.0000 C   0  0  0  0  0  0  0  0  0  0  0  0
    5.5056   -2.5274    0.0000 C   0  0  0  0  0  0  0  0  0  0  0  0
    6.2304   -3.7618    0.0000 C   0  0  0  0  0  0  0  0  0  0  0  0
    7.6509   -3.7520    0.0000 C   0  0  0  0  0  0  0  0  0  0  0  0
    4.0949   -2.5274    0.0000 C   0  0  0  0  0  0  0  0  0  0  0  0
    5.5056   -4.1732    0.0000 C   0  0  0  0  0  0  0  0  0  0  0  0
    7.6509   -2.9291    0.0000 C   0  0  0  0  0  0  0  0  0  0  0  0
    7.6509   -1.2736    0.0000 C   0  0  0  0  0  0  0  0  0  0  0  0
    4.0949   -4.1928    0.0000 C   0  0  0  0  0  0  0  0  0  0  0  0
    6.9358   -4.1732    0.0000 O   0  0  0  0  0  0  0  0  0  0  0  0
    5.5056   -1.7046    0.0000 C   0  0  0  0  0  0  0  0  0  0  0  0
    6.9260   -1.6850    0.0000 C   0  0  0  0  0  0  0  0  0  0  0  0
    8.3661   -1.6850    0.0000 C   0  0  0  0  0  0  0  0  0  0  0  0
    6.2304   -2.9487    0.0000 C   0  0  0  0  0  0  0  0  0  0  0  0
    4.0949   -0.0392    0.0000 C   0  0  0  0  0  0  0  0  0  0  0  0
    6.9260   -2.5079    0.0000 C   0  0  0  0  0  0  0  0  0  0  0  0
    8.3661   -2.5079    0.0000 C   0  0  0  0  0  0  0  0  0  0  0  0
    1.3715   -1.6654    0.0000 C   0  0  0  0  0  0  0  0  0  0  0  0
    1.3715    0.0000    0.0000 C   0  0  0  0  0  0  0  0  0  0  0  0
    4.8002   -0.4507    0.0000 C   0  0  0  0  0  0  0  0  0  0  0  0
    8.3661   -4.1635    0.0000 O   0  0  0  0  0  0  0  0  0  0  0  0
    3.3797   -3.7814    0.0000 O   0  0  0  0  0  0  0  0  0  0  0  0
    0.6759   -1.2539    0.0000 C   0  0  0  0  0  0  0  0  0  0  0  0
    7.6509   -0.4408    0.0000 O   0  0  0  0  0  0  0  0  0  0  0  0
    0.6759   -0.4114    0.0000 C   0  0  0  0  0  0  0  0  0  0  0  0
    5.5056   -5.0059    0.0000 O   0  0  0  0  0  0  0  0  0  0  0  0
    4.0949   -5.0059    0.0000 O   0  0  0  0  0  0  0  0  0  0  0  0
    6.2109   -1.2736    0.0000 O   0  0  0  0  0  0  0  0  0  0  0  0
    9.0812   -1.2736    0.0000 O   0  0  0  0  0  0  0  0  0  0  0  0
    0.0000   -1.7241    0.0000 O   0  0  0  0  0  0  0  0  0  0  0  0
    8.3661   -0.0196    0.0000 C   0  0  0  0  0  0  0  0  0  0  0  0
    6.2304   -5.4272    0.0000 C   0  0  0  0  0  0  0  0  0  0  0  0
    6.2109   -0.4408    0.0000 C   0  0  0  0  0  0  0  0  0  0  0  0
    9.7963   -1.6850    0.0000 C   0  0  0  0  0  0  0  0  0  0  0  0
    4.8002   -5.4272    0.0000 C   0  0  0  0  0  0  0  0  0  0  0  0
    0.0000   -2.5667    0.0000 C   0  0  0  0  0  0  0  0  0  0  0  0
  1  2  1  0
  1  3  2  0
  1  6  1  0
  2  8  1  0
  3  9  1  0
  3 23  1  0
  4  5  1  0
  4 14  1  0
  4 17  1  1
  5 13  1  1
  5 10  1  0
  6  7  1  0
  6 13  1  6
  7 19  1  0
  7 28  1  0
  8 26  2  0
  8  9  1  0
  9 27  2  0
 10 22  1  1
 10 19  1  0
 11 22  1  0
 11 18  1  1
 11 14  1  0
 12 18  1  0
 12 15  1  0
 12 29  2  0
 14 34  1  6
 15 24  1  0
 15 25  2  0
 16 21  2  0
 16 32  1  0
 16 20  1  0
 17 30  2  0
 17 35  1  0
 20 24  2  0
 20 36  1  0
 21 25  1  0
 21 37  1  0
 23 28  1  0
 26 31  1  0
 27 33  1  0
 31 38  1  0
 31 33  2  0
 32 39  1  0
 34 40  1  0
 35 43  1  0
 36 41  1  0
 37 42  1  0
 38 44  1  0
M  END
>  <Formula>  (29) 
C33H40N2O9

>  <FW>  (29) 
608.6787

>  <DSSTox_CID>  (29) 
1237

>  <NR-Aromatase>  (29) 
1

>  <NR-AR>  (29) 
0

>  <NR-ER-LBD>  (29) 
0

>  <NR-AhR>  (29) 
1

>  <SR-ARE>  (29) 
0

>  <SR-ATAD5>  (29) 
0

>  <SR-HSE>  (29) 
0

>  <SR-p53>  (29) 
0

$$$$
NCGC00257427-01
     RDKit          2D

 25 27  0  0  0  0  0  0  0  0999 V2000
    2.1512   -2.0285    0.0000 C   0  0  0  0  0  0  0  0  0  0  0  0
    2.1512   -2.8586    0.0000 O   0  0  0  0  0  0  0  0  0  0  0  0
    1.4293   -1.6098    0.0000 C   0  0  0  0  0  0  0  0  0  0  0  0
    1.4293   -0.7868    0.0000 C   0  0  0  0  0  0  0  0  0  0  0  0
    0.7147   -2.0285    0.0000 C   0  0  0  0  0  0  0  0  0  0  0  0
    0.7147   -0.3826    0.0000 C   0  0  0  0  0  0  0  0  0  0  0  0
    0.0000   -1.6098    0.0000 C   0  0  0  0  0  0  0  0  0  0  0  0
    0.0000   -0.7868    0.0000 C   0  0  0  0  0  0  0  0  0  0  0  0
    2.8659   -1.6098    0.0000 N   0  0  0  0  0  0  0  0  0  0  0  0
    2.1512   -0.3826    0.0000 Cl  0  0  0  0  0  0  0  0  0  0  0  0
    0.7147   -2.8586    0.0000 Cl  0  0  0  0  0  0  0  0  0  0  0  0
    4.4540   -0.8085    0.0000 O   0  0  0  0  0  0  0  0  0  0  0  0
    4.2879   -1.6098    0.0000 C   0  0  0  0  0  0  0  0  0  0  0  0
    5.2769   -0.7147    0.0000 C   0  0  0  0  0  0  0  0  0  0  0  0
    5.0026   -2.0285    0.0000 C   0  0  0  0  0  0  0  0  0  0  0  0
    5.6089   -1.4726    0.0000 C   0  0  0  0  0  0  0  0  0  0  0  0
    3.5661   -2.0213    0.0000 C   0  0  0  0  0  0  0  0  0  0  0  0
    3.5661   -2.8442    0.0000 C   0  0  0  0  0  0  0  0  0  0  0  0
    4.2879   -3.2629    0.0000 C   0  0  0  0  0  0  0  0  0  0  0  0
    5.0026   -2.8442    0.0000 C   0  0  0  0  0  0  0  0  0  0  0  0
    6.2442   -2.4471    0.0000 C   0  0  0  0  0  0  0  0  0  0  0  0
    6.4102   -1.6387    0.0000 C   0  0  0  0  0  0  0  0  0  0  0  0
    6.5835   -0.8374    0.0000 C   0  0  0  0  0  0  0  0  0  0  0  0
    7.2188   -1.8119    0.0000 O   0  0  0  0  0  0  0  0  0  0  0  0
    5.6884    0.0000    0.0000 C   0  0  0  0  0  0  0  0  0  0  0  0
  1  2  2  0
  1  3  1  0
  1  9  1  0
  3  4  2  0
  3  5  1  0
  4  6  1  0
  4 10  1  0
  5  7  2  0
  5 11  1  0
  6  8  2  0
  7  8  1  0
  9 17  1  0
 12 13  1  0
 12 14  1  0
 13 15  2  0
 13 17  1  0
 14 16  2  0
 14 25  1  0
 15 16  1  0
 15 20  1  0
 16 22  1  0
 17 18  2  0
 18 19  1  0
 19 20  2  0
 21 22  1  0
 22 23  1  0
 22 24  1  0
M  END
>  <Formula>  (30) 
C19H17Cl2NO3

>  <FW>  (30) 
378.2492

>  <DSSTox_CID>  (30) 
28148

>  <NR-Aromatase>  (30) 
1

>  <NR-AR>  (30) 
0

>  <NR-AR-LBD>  (30) 
0

>  <NR-ER-LBD>  (30) 
0

>  <NR-AhR>  (30) 
1

>  <SR-ATAD5>  (30) 
0

>  <SR-HSE>  (30) 
0

>  <SR-MMP>  (30) 
1

>  <SR-p53>  (30) 
0

$$$$
NCGC00183006-01
     RDKit          2D

 33 38  0  0  1  0  0  0  0  0999 V2000
    1.4338   -2.0186    0.0000 C   0  0  0  0  0  0  0  0  0  0  0  0
    1.4338   -2.8436    0.0000 C   0  0  0  0  0  0  0  0  0  0  0  0
    0.7129   -1.5941    0.0000 C   0  0  0  0  0  0  0  0  0  0  0  0
    0.7129   -3.2521    0.0000 C   0  0  0  0  0  0  0  0  0  0  0  0
    0.0000   -2.0186    0.0000 C   0  0  0  0  0  0  0  0  0  0  0  0
    0.0000   -2.8436    0.0000 C   0  0  0  0  0  0  0  0  0  0  0  0
    2.2188   -1.7542    0.0000 N   0  0  0  0  0  0  0  0  0  0  0  0
    2.6994   -2.4271    0.0000 C   0  0  0  0  0  0  0  0  0  0  0  0
    2.2188   -3.0919    0.0000 C   0  0  0  0  0  0  0  0  0  0  0  0
    3.5245   -2.4271    0.0000 C   0  0  0  0  0  0  0  0  0  0  0  0
    3.9490   -3.1320    0.0000 O   0  0  0  0  0  0  0  0  0  0  0  0
    3.9490   -1.6982    0.0000 N   0  0  0  0  0  0  0  0  0  0  0  0
    4.7741   -1.6982    0.0000 C   0  0  0  0  0  0  0  0  0  0  0  0
    5.1265   -0.9532    0.0000 C   0  0  0  0  0  0  0  0  0  0  0  0
    5.1265   -2.4431    0.0000 N   0  0  0  0  0  0  0  0  0  0  0  0
    5.9195   -0.7850    0.0000 N   0  0  0  0  0  0  0  0  0  0  0  0
    5.9195   -2.6354    0.0000 C   0  0  0  0  0  0  0  0  0  0  0  0
    6.5764   -2.1227    0.0000 C   0  0  0  0  0  0  0  0  0  0  0  0
    6.5764   -1.2976    0.0000 C   0  0  0  0  0  0  0  0  0  0  0  0
    4.5978   -0.3124    0.0000 O   0  0  0  0  0  0  0  0  0  0  0  0
    8.0102   -1.2976    0.0000 C   0  0  0  0  0  0  0  0  0  0  0  0
    8.0102   -2.1227    0.0000 C   0  0  0  0  0  0  0  0  0  0  0  0
    7.2973   -0.8731    0.0000 C   0  0  0  0  0  0  0  0  0  0  0  0
    7.2973   -2.5232    0.0000 C   0  0  0  0  0  0  0  0  0  0  0  0
    6.2079    0.0000    0.0000 C   0  0  0  0  0  0  0  0  0  0  0  0
    7.0730   -0.0801    0.0000 C   0  0  0  0  0  0  0  0  0  0  0  0
    6.6485   -3.8769    0.0000 C   0  0  0  0  0  0  0  0  0  0  0  0
    6.6485   -4.7019    0.0000 C   0  0  0  0  0  0  0  0  0  0  0  0
    5.9195   -3.4604    0.0000 C   0  0  0  0  0  0  0  0  0  0  0  0
    5.9195   -5.1105    0.0000 C   0  0  0  0  0  0  0  0  0  0  0  0
    5.2146   -3.8769    0.0000 C   0  0  0  0  0  0  0  0  0  0  0  0
    5.2146   -4.7019    0.0000 C   0  0  0  0  0  0  0  0  0  0  0  0
    7.3613   -3.4604    0.0000 F   0  0  0  0  0  0  0  0  0  0  0  0
  1  3  2  0
  1  7  1  0
  1  2  1  0
  2  4  2  0
  2  9  1  0
  3  5  1  0
  4  6  1  0
  5  6  2  0
  7  8  1  0
  8  9  2  0
  8 10  1  0
 10 11  2  0
 10 12  1  0
 13 12  1  1
 13 14  1  0
 13 15  1  0
 14 16  1  0
 14 20  2  0
 15 17  2  0
 16 25  1  0
 16 19  1  0
 17 18  1  0
 17 29  1  0
 18 24  2  0
 18 19  1  0
 19 23  2  0
 21 22  2  0
 21 23  1  0
 22 24  1  0
 23 26  1  0
 25 26  1  0
 27 28  2  0
 27 29  1  0
 27 33  1  0
 28 30  1  0
 29 31  2  0
 30 32  2  0
 31 32  1  0
M  END
>  <Formula>  (31) 
C26H19FN4O2

>  <FW>  (31) 
438.4531

>  <DSSTox_CID>  (31) 
28712

>  <NR-Aromatase>  (31) 
0

>  <NR-AR>  (31) 
0

>  <NR-AR-LBD>  (31) 
0

>  <NR-ER-LBD>  (31) 
0

>  <NR-PPAR-gamma>  (31) 
0

>  <NR-AhR>  (31) 
1

>  <SR-ATAD5>  (31) 
1

>  <SR-HSE>  (31) 
0

>  <SR-MMP>  (31) 
1

$$$$
NCGC00256490-01
     RDKit          2D

 30 32  0  0  1  0  0  0  0  0999 V2000
    0.0000   -0.7163    0.0000 O   0  0  0  0  0  0  0  0  0  0  0  0
    0.8255   -0.7163    0.0000 C   0  0  0  0  0  0  0  0  0  0  0  0
    1.2348   -1.4258    0.0000 C   0  0  0  0  0  0  0  0  0  0  0  0
    2.0603   -1.4258    0.0000 C   0  0  0  0  0  0  0  0  0  0  0  0
    2.4696   -2.1422    0.0000 C   0  0  0  0  0  0  0  0  0  0  0  0
    3.2951   -2.1422    0.0000 C   0  0  0  0  0  0  0  0  0  0  0  0
    3.7113   -2.8517    0.0000 C   0  0  0  0  0  0  0  0  0  0  0  0
    3.2951   -3.5680    0.0000 C   0  0  0  0  0  0  0  0  0  0  0  0
    3.7113   -4.2843    0.0000 C   0  0  0  0  0  0  0  0  0  0  0  0
    3.3702   -5.0348    0.0000 C   0  0  0  0  0  0  0  0  0  0  0  0
    3.9842   -5.5874    0.0000 C   0  0  0  0  0  0  0  0  0  0  0  0
    4.7005   -5.1712    0.0000 C   0  0  0  0  0  0  0  0  0  0  0  0
    4.5299   -4.3662    0.0000 N   0  0  0  0  0  0  0  0  0  0  0  0
    5.0825   -3.7590    0.0000 C   0  0  0  0  0  0  0  0  0  0  0  0
    5.8876   -3.9296    0.0000 C   0  0  0  0  0  0  0  0  0  0  0  0
    4.8233   -2.9745    0.0000 C   0  0  0  0  0  0  0  0  0  0  0  0
    5.4100   -5.5874    0.0000 C   0  0  0  0  0  0  0  0  0  0  0  0
    5.4100   -6.4129    0.0000 C   0  0  0  0  0  0  0  0  0  0  0  0
    4.7005   -6.8222    0.0000 C   0  0  0  0  0  0  0  0  0  0  0  0
    3.9842   -6.4129    0.0000 C   0  0  0  0  0  0  0  0  0  0  0  0
    2.5652   -5.2053    0.0000 C   0  0  0  0  0  0  0  0  0  0  0  0
    2.3127   -5.9899    0.0000 C   0  0  0  0  0  0  0  0  0  0  0  0
    1.5077   -6.1605    0.0000 C   0  0  0  0  0  0  0  0  0  0  0  0
    0.9551   -5.5465    0.0000 C   0  0  0  0  0  0  0  0  0  0  0  0
    1.2075   -4.7619    0.0000 C   0  0  0  0  0  0  0  0  0  0  0  0
    2.0125   -4.5914    0.0000 C   0  0  0  0  0  0  0  0  0  0  0  0
    0.1501   -5.7170    0.0000 F   0  0  0  0  0  0  0  0  0  0  0  0
    3.7113   -1.4258    0.0000 O   0  0  0  0  0  0  0  0  0  0  0  0
    2.4696   -0.7163    0.0000 O   0  0  0  0  0  0  0  0  0  0  0  0
    1.2348    0.0000    0.0000 O   0  0  0  0  0  0  0  0  0  0  0  0
  1  2  2  0
  2  3  1  0
  2 30  1  0
  3  4  1  0
  4  5  1  0
  4 29  1  6
  5  6  1  0
  6  7  1  0
  6 28  1  6
  7  8  2  0
  8  9  1  0
  9 10  2  0
  9 13  1  0
 10 11  1  0
 10 21  1  0
 11 12  2  0
 11 20  1  0
 12 13  1  0
 12 17  1  0
 13 14  1  0
 14 15  1  0
 14 16  1  0
 17 18  2  0
 18 19  1  0
 19 20  2  0
 21 22  2  0
 21 26  1  0
 22 23  1  0
 23 24  2  0
 24 25  1  0
 24 27  1  0
 25 26  2  0
M  END
>  <Formula>  (32) 
C24H26FNO4

>  <FW>  (32) 
411.4659

>  <DSSTox_CID>  (32) 
636

>  <NR-Aromatase>  (32) 
1

>  <NR-AR>  (32) 
0

>  <NR-AR-LBD>  (32) 
0

>  <NR-ER>  (32) 
0

>  <NR-ER-LBD>  (32) 
0

>  <NR-AhR>  (32) 
1

>  <SR-ATAD5>  (32) 
0

>  <SR-HSE>  (32) 
0

>  <SR-MMP>  (32) 
0

$$$$
NCGC00016526-02
     RDKit          2D

 26 29  0  0  0  0  0  0  0  0999 V2000
    7.0874   -0.7125    0.0000 C   0  0  0  0  0  0  0  0  0  0  0  0
    6.2624   -0.7125    0.0000 O   0  0  0  0  0  0  0  0  0  0  0  0
    5.8499   -1.4250    0.0000 C   0  0  0  0  0  0  0  0  0  0  0  0
    5.0249   -1.4250    0.0000 C   0  0  0  0  0  0  0  0  0  0  0  0
    4.6124   -0.7125    0.0000 C   0  0  0  0  0  0  0  0  0  0  0  0
    3.7874   -0.7125    0.0000 N   0  0  0  0  0  0  0  0  0  0  0  0
    3.3675    0.0000    0.0000 C   0  0  0  0  0  0  0  0  0  0  0  0
    2.5425    0.0000    0.0000 C   0  0  0  0  0  0  0  0  0  0  0  0
    2.1300   -0.7125    0.0000 C   0  0  0  0  0  0  0  0  0  0  0  0
    2.5425   -1.4250    0.0000 C   0  0  0  0  0  0  0  0  0  0  0  0
    2.1300   -2.1450    0.0000 C   0  0  0  0  0  0  0  0  0  0  0  0
    1.3050   -2.1450    0.0000 C   0  0  0  0  0  0  0  0  0  0  0  0
    0.7575   -2.7525    0.0000 O   0  0  0  0  0  0  0  0  0  0  0  0
    0.0000   -2.4224    0.0000 C   0  0  0  0  0  0  0  0  0  0  0  0
    0.0900   -1.5975    0.0000 O   0  0  0  0  0  0  0  0  0  0  0  0
    0.8925   -1.4250    0.0000 C   0  0  0  0  0  0  0  0  0  0  0  0
    1.3050   -0.7125    0.0000 C   0  0  0  0  0  0  0  0  0  0  0  0
    3.3675   -1.4250    0.0000 C   0  0  0  0  0  0  0  0  0  0  0  0
    3.7874   -2.1450    0.0000 C   0  0  0  0  0  0  0  0  0  0  0  0
    4.6124   -2.1450    0.0000 C   0  0  0  0  0  0  0  0  0  0  0  0
    5.0249   -2.8574    0.0000 C   0  0  0  0  0  0  0  0  0  0  0  0
    5.8499   -2.8574    0.0000 C   0  0  0  0  0  0  0  0  0  0  0  0
    6.2624   -2.1450    0.0000 C   0  0  0  0  0  0  0  0  0  0  0  0
    7.0874   -2.1450    0.0000 O   0  0  0  0  0  0  0  0  0  0  0  0
    7.4998   -2.8574    0.0000 C   0  0  0  0  0  0  0  0  0  0  0  0
    3.7124   -3.6824    0.0000 Cl  0  0  0  0  0  0  0  0  0  0  0  0
  1  2  1  0
  2  3  1  0
  3  4  2  0
  3 23  1  0
  4  5  1  0
  4 20  1  0
  5  6  2  0
  6  7  1  0
  6 18  1  0
  7  8  1  0
  8  9  1  0
  9 10  2  0
  9 17  1  0
 10 11  1  0
 10 18  1  0
 11 12  2  0
 12 13  1  0
 12 16  1  0
 13 14  1  0
 14 15  1  0
 15 16  1  0
 16 17  2  0
 18 19  2  0
 19 20  1  0
 20 21  2  0
 21 22  1  0
 22 23  2  0
 23 24  1  0
 24 25  1  0
M  CHG  2   6   1  26  -1
M  END
>  <Formula>  (33) 
C20H18ClNO4

>  <FW>  (33) 
371.8142 (336.3607+35.4535)

>  <DSSTox_CID>  (33) 
4602

>  <NR-AR>  (33) 
0

>  <NR-AR-LBD>  (33) 
0

>  <NR-ER-LBD>  (33) 
0

>  <NR-PPAR-gamma>  (33) 
0

>  <NR-AhR>  (33) 
1

>  <SR-ATAD5>  (33) 
0

>  <SR-MMP>  (33) 
1

>  <SR-p53>  (33) 
0

$$$$
NCGC00016912-01
     RDKit          2D

 36 40  0  0  1  0  0  0  0  0999 V2000
    9.0960   -2.5392    0.0000 C   0  0  0  0  0  0  0  0  0  0  0  0
    9.4817   -3.2249    0.0000 C   0  0  0  0  0  0  0  0  0  0  0  0
    9.7389   -2.0785    0.0000 C   0  0  0  0  0  0  0  0  0  0  0  0
    8.5496   -3.1713    0.0000 O   0  0  0  0  0  0  0  0  0  0  0  0
    9.7282   -1.2642    0.0000 N   0  0  0  0  0  0  0  0  0  0  0  0
   10.1246    0.0000    0.0000 N   0  0  0  0  0  0  0  0  0  0  0  0
    8.6246   -1.8749    0.0000 O   0  0  0  0  0  0  0  0  0  0  0  0
    2.9463   -3.5249    0.0000 N   0  0  0  0  0  0  0  0  0  0  0  0
    9.0639   -3.9427    0.0000 C   0  0  0  0  0  0  0  0  0  0  0  0
    9.0425   -0.7714    0.0000 N   0  0  0  0  0  0  0  0  0  0  0  0
    1.2749   -3.5249    0.0000 N   0  0  0  0  0  0  0  0  0  0  0  0
    9.3317    0.0000    0.0000 C   0  0  0  0  0  0  0  0  0  0  0  0
   10.3817   -0.7928    0.0000 C   0  0  0  0  0  0  0  0  0  0  0  0
   10.3067   -3.2249    0.0000 C   0  0  0  0  0  0  0  0  0  0  0  0
    9.4710   -4.6498    0.0000 C   0  0  0  0  0  0  0  0  0  0  0  0
    3.7820   -3.5249    0.0000 C   0  0  0  0  0  0  0  0  0  0  0  0
    7.7890   -2.8713    0.0000 C   0  0  0  0  0  0  0  0  0  0  0  0
    2.5071   -4.2641    0.0000 C   0  0  0  0  0  0  0  0  0  0  0  0
    2.5499   -2.8071    0.0000 C   0  0  0  0  0  0  0  0  0  0  0  0
    1.7142   -2.8071    0.0000 C   0  0  0  0  0  0  0  0  0  0  0  0
    1.7035   -4.2641    0.0000 C   0  0  0  0  0  0  0  0  0  0  0  0
    7.7997   -2.0785    0.0000 C   0  0  0  0  0  0  0  0  0  0  0  0
    4.1891   -4.2641    0.0000 C   0  0  0  0  0  0  0  0  0  0  0  0
    4.2212   -2.8071    0.0000 C   0  0  0  0  0  0  0  0  0  0  0  0
   10.2960   -4.6498    0.0000 C   0  0  0  0  0  0  0  0  0  0  0  0
    0.4393   -3.5249    0.0000 C   0  0  0  0  0  0  0  0  0  0  0  0
    8.2282   -3.9534    0.0000 Cl  0  0  0  0  0  0  0  0  0  0  0  0
    6.2676   -3.5249    0.0000 O   0  0  0  0  0  0  0  0  0  0  0  0
   10.7139   -3.9427    0.0000 C   0  0  0  0  0  0  0  0  0  0  0  0
    5.4319   -3.5249    0.0000 C   0  0  0  0  0  0  0  0  0  0  0  0
    6.8247   -2.8713    0.0000 C   0  0  0  0  0  0  0  0  0  0  0  0
    5.0248   -4.2641    0.0000 C   0  0  0  0  0  0  0  0  0  0  0  0
    5.0462   -2.8071    0.0000 C   0  0  0  0  0  0  0  0  0  0  0  0
   10.7032   -5.3676    0.0000 Cl  0  0  0  0  0  0  0  0  0  0  0  0
    0.0536   -2.8071    0.0000 C   0  0  0  0  0  0  0  0  0  0  0  0
    0.0000   -4.2641    0.0000 C   0  0  0  0  0  0  0  0  0  0  0  0
  1  2  1  0
  1  3  1  1
  1  4  1  0
  1  7  1  0
  2  9  2  0
  2 14  1  0
  3  5  1  0
  4 17  1  0
  5 10  1  0
  5 13  1  0
  6 13  2  0
  6 12  1  0
  7 22  1  0
  8 16  1  0
  8 18  1  0
  8 19  1  0
  9 15  1  0
  9 27  1  0
 10 12  2  0
 11 20  1  0
 11 26  1  0
 11 21  1  0
 14 29  2  0
 15 25  2  0
 16 24  1  0
 16 23  2  0
 17 31  1  1
 17 22  1  0
 18 21  1  0
 19 20  1  0
 23 32  1  0
 24 33  2  0
 25 29  1  0
 25 34  1  0
 26 35  1  0
 26 36  1  0
 28 31  1  0
 28 30  1  0
 30 32  2  0
 30 33  1  0
M  END
>  <Formula>  (34) 
C26H31Cl2N5O3

>  <FW>  (34) 
532.4620

>  <DSSTox_CID>  (34) 
25498

>  <NR-AR>  (34) 
0

>  <NR-AR-LBD>  (34) 
0

>  <NR-ER>  (34) 
0

>  <NR-ER-LBD>  (34) 
0

>  <NR-PPAR-gamma>  (34) 
0

>  <NR-AhR>  (34) 
1

>  <SR-ATAD5>  (34) 
0

>  <SR-p53>  (34) 
0

$$$$
NCGC00164547-01
     RDKit          2D

 41 45  0  0  0  0  0  0  0  0999 V2000
    1.4122   -3.3587    0.0000 C   0  0  0  0  0  0  0  0  0  0  0  0
    1.4122   -4.1729    0.0000 C   0  0  0  0  0  0  0  0  0  0  0  0
    0.7125   -2.9389    0.0000 C   0  0  0  0  0  0  0  0  0  0  0  0
    0.7125   -4.5800    0.0000 C   0  0  0  0  0  0  0  0  0  0  0  0
    0.0000   -3.3587    0.0000 C   0  0  0  0  0  0  0  0  0  0  0  0
    0.0000   -4.1729    0.0000 C   0  0  0  0  0  0  0  0  0  0  0  0
    2.1247   -2.9389    0.0000 C   0  0  0  0  0  0  0  0  0  0  0  0
    2.1247   -4.5800    0.0000 S   0  0  0  0  0  0  0  0  0  0  0  0
    2.8371   -4.1857    0.0000 N   0  0  0  0  0  0  0  0  0  0  0  0
    4.2620   -3.3587    0.0000 C   0  0  0  0  0  0  0  0  0  0  0  0
    3.5496   -4.5800    0.0000 C   0  0  0  0  0  0  0  0  0  0  0  0
    4.2620   -4.1857    0.0000 C   0  0  0  0  0  0  0  0  0  0  0  0
    5.6869   -3.3587    0.0000 C   0  0  0  0  0  0  0  0  0  0  0  0
    5.6869   -4.1857    0.0000 C   0  0  0  0  0  0  0  0  0  0  0  0
    4.9745   -2.9389    0.0000 C   0  0  0  0  0  0  0  0  0  0  0  0
    4.9745   -4.5800    0.0000 C   0  0  0  0  0  0  0  0  0  0  0  0
    6.3994   -2.1119    0.0000 C   0  0  0  0  0  0  0  0  0  0  0  0
    6.3994   -2.9389    0.0000 C   0  0  0  0  0  0  0  0  0  0  0  0
    4.9745   -2.1119    0.0000 O   0  0  0  0  0  0  0  0  0  0  0  0
    4.2620   -1.7048    0.0000 C   0  0  0  0  0  0  0  0  0  0  0  0
    1.7175   -5.2925    0.0000 O   0  0  0  0  0  0  0  0  0  0  0  0
    2.5317   -5.2925    0.0000 O   0  0  0  0  0  0  0  0  0  0  0  0
    3.5496   -5.4070    0.0000 O   0  0  0  0  0  0  0  0  0  0  0  0
    8.6003   -1.0432    0.0000 C   0  0  0  0  0  0  0  0  0  0  0  0
    8.6003   -1.8702    0.0000 C   0  0  0  0  0  0  0  0  0  0  0  0
    7.9006   -0.6361    0.0000 C   0  0  0  0  0  0  0  0  0  0  0  0
    7.9006   -2.2773    0.0000 C   0  0  0  0  0  0  0  0  0  0  0  0
    7.1754   -1.0432    0.0000 C   0  0  0  0  0  0  0  0  0  0  0  0
    7.1754   -1.8702    0.0000 C   0  0  0  0  0  0  0  0  0  0  0  0
    6.3994   -0.7761    0.0000 N   0  0  0  0  0  0  0  0  0  0  0  0
    5.9159   -1.4631    0.0000 C   0  0  0  0  0  0  0  0  0  0  0  0
    6.1449    0.0000    0.0000 C   0  0  0  0  0  0  0  0  0  0  0  0
    9.3128   -2.2773    0.0000 N   0  0  0  0  0  0  0  0  0  0  0  0
   10.0252   -1.8702    0.0000 C   0  0  0  0  0  0  0  0  0  0  0  0
   10.7377   -2.2773    0.0000 O   0  0  0  0  0  0  0  0  0  0  0  0
   11.4502   -1.8702    0.0000 C   0  0  0  0  0  0  0  0  0  0  0  0
   11.4502   -1.0432    0.0000 C   0  0  0  0  0  0  0  0  0  0  0  0
   10.0252   -1.0432    0.0000 O   0  0  0  0  0  0  0  0  0  0  0  0
   12.2390   -2.1119    0.0000 C   0  0  0  0  0  0  0  0  0  0  0  0
   12.7224   -1.4631    0.0000 C   0  0  0  0  0  0  0  0  0  0  0  0
   12.2390   -0.7761    0.0000 C   0  0  0  0  0  0  0  0  0  0  0  0
  1  3  2  0
  1  7  1  0
  1  2  1  0
  2  4  2  0
  2  8  1  0
  3  5  1  0
  4  6  1  0
  5  6  2  0
  8  9  1  0
  8 21  2  0
  8 22  2  0
  9 11  1  0
 10 15  2  0
 10 12  1  0
 11 12  1  0
 11 23  2  0
 12 16  2  0
 13 14  2  0
 13 15  1  0
 13 18  1  0
 14 16  1  0
 15 19  1  0
 17 18  1  0
 17 29  1  0
 17 31  2  0
 19 20  1  0
 24 25  2  0
 24 26  1  0
 25 27  1  0
 25 33  1  0
 26 28  2  0
 27 29  2  0
 28 29  1  0
 28 30  1  0
 30 31  1  0
 30 32  1  0
 33 34  1  0
 34 35  1  0
 34 38  2  0
 35 36  1  0
 36 39  1  0
 36 37  1  0
 37 41  1  0
 39 40  1  0
 40 41  1  0
M  END
>  <Formula>  (35) 
C31H33N3O6S

>  <FW>  (35) 
575.6752

>  <DSSTox_CID>  (35) 
3746

>  <NR-Aromatase>  (35) 
0

>  <NR-AR>  (35) 
0

>  <NR-AR-LBD>  (35) 
0

>  <NR-ER>  (35) 
0

>  <NR-ER-LBD>  (35) 
0

>  <NR-PPAR-gamma>  (35) 
1

>  <NR-AhR>  (35) 
1

>  <SR-ATAD5>  (35) 
0

>  <SR-MMP>  (35) 
1

$$$$
NCGC00092314-01
     RDKit          2D

 23 26  0  0  1  0  0  0  0  0999 V2000
    2.3580   -1.6383    0.0000 C   0  0  0  0  0  0  0  0  0  0  0  0
    2.3580   -2.4516    0.0000 C   0  0  0  0  0  0  0  0  0  0  0  0
    3.0601   -1.2287    0.0000 C   0  0  0  0  0  0  0  0  0  0  0  0
    1.6500   -1.2287    0.0000 C   0  0  0  0  0  0  0  0  0  0  0  0
    3.1420   -2.6623    0.0000 N   0  0  0  0  0  0  0  0  0  0  0  0
    1.6500   -2.8671    0.0000 N   0  0  0  0  0  0  0  0  0  0  0  0
    3.6394   -1.7963    0.0000 C   0  0  0  0  0  0  0  0  0  0  0  0
    3.0601   -0.4037    0.0000 C   0  0  0  0  0  0  0  0  0  0  0  0
    1.6500   -0.4037    0.0000 N   0  0  0  0  0  0  0  0  0  0  0  0
    0.9304   -1.6383    0.0000 N   0  0  0  0  0  0  0  0  0  0  0  0
    0.9304   -2.4516    0.0000 C   0  0  0  0  0  0  0  0  0  0  0  0
    2.3580    0.0000    0.0000 N   0  0  0  0  0  0  0  0  0  0  0  0
    3.7681    0.0000    0.0000 N   0  0  0  0  0  0  0  0  0  0  0  0
    0.9304    0.0000    0.0000 C   0  0  0  0  0  0  0  0  0  0  0  0
    3.1245   -4.1894    0.0000 C   0  0  0  0  0  0  0  0  0  0  0  0
    2.3580   -3.6394    0.0000 O   0  0  0  0  0  0  0  0  0  0  0  0
    2.8261   -5.0847    0.0000 C   0  0  0  0  0  0  0  0  0  0  0  0
    1.5974   -4.1894    0.0000 C   0  0  0  0  0  0  0  0  0  0  0  0
    1.8841   -5.0847    0.0000 C   0  0  0  0  0  0  0  0  0  0  0  0
    3.3878   -5.8511    0.0000 O   0  0  0  0  0  0  0  0  0  0  0  0
    0.6963   -3.8968    0.0000 C   0  0  0  0  0  0  0  0  0  0  0  0
    1.3341   -5.8511    0.0000 O   0  0  0  0  0  0  0  0  0  0  0  0
    0.0000   -4.5346    0.0000 O   0  0  0  0  0  0  0  0  0  0  0  0
  1  2  1  0
  1  3  1  0
  1  4  2  0
  2  5  1  0
  2  6  2  0
  3  7  2  0
  3  8  1  0
  4  9  1  0
  4 10  1  0
  5  7  1  0
 15  5  1  1
  6 11  1  0
  8 12  2  0
  8 13  1  0
  9 14  1  0
  9 12  1  0
 10 11  2  0
 15 16  1  0
 15 17  1  0
 16 18  1  0
 17 19  1  0
 17 20  1  6
 18 21  1  1
 18 19  1  0
 19 22  1  6
 21 23  1  0
M  END
>  <Formula>  (36) 
C13H16N6O4

>  <FW>  (36) 
320.3039

>  <DSSTox_CID>  (36) 
25743

>  <NR-Aromatase>  (36) 
1

>  <NR-AR>  (36) 
0

>  <NR-AR-LBD>  (36) 
0

>  <NR-ER-LBD>  (36) 
0

>  <NR-PPAR-gamma>  (36) 
0

>  <NR-AhR>  (36) 
1

>  <SR-ATAD5>  (36) 
0

>  <SR-MMP>  (36) 
1

>  <SR-p53>  (36) 
0

$$$$
NCGC00163158-01
     RDKit          2D

 25 28  0  0  1  0  0  0  0  0999 V2000
    2.1288   -3.2942    0.0000 C   0  0  0  0  0  0  0  0  0  0  0  0
    2.1288   -4.9442    0.0000 C   0  0  0  0  0  0  0  0  0  0  0  0
    2.8154   -3.7211    0.0000 C   0  0  0  0  0  0  0  0  0  0  0  0
    1.4019   -3.7211    0.0000 C   0  0  0  0  0  0  0  0  0  0  0  0
    3.5308   -3.2942    0.0000 N   0  0  0  0  0  0  0  0  0  0  0  0
    1.4019   -4.5461    0.0000 C   0  0  0  0  0  0  0  0  0  0  0  0
    3.5538   -0.8481    0.0000 C   0  0  0  0  0  0  0  0  0  0  0  0
    2.8154   -4.5461    0.0000 C   0  0  0  0  0  0  0  0  0  0  0  0
    2.1288   -2.4865    0.0000 C   0  0  0  0  0  0  0  0  0  0  0  0
    2.1288   -5.7692    0.0000 C   0  0  0  0  0  0  0  0  0  0  0  0
    0.7039   -5.7692    0.0000 N   0  0  0  0  0  0  0  0  0  0  0  0
    2.8154   -1.2519    0.0000 N   0  0  0  0  0  0  0  0  0  0  0  0
    2.8154   -2.0769    0.0000 C   0  0  0  0  0  0  0  0  0  0  0  0
    0.7039   -4.9442    0.0000 C   0  0  0  0  0  0  0  0  0  0  0  0
    3.5308   -2.4865    0.0000 C   0  0  0  0  0  0  0  0  0  0  0  0
    4.2577   -1.2635    0.0000 N   0  0  0  0  0  0  0  0  0  0  0  0
    3.5538    0.0000    0.0000 O   0  0  0  0  0  0  0  0  0  0  0  0
    0.7039   -3.2942    0.0000 C   0  0  0  0  0  0  0  0  0  0  0  0
    4.2577   -3.7327    0.0000 C   0  0  0  0  0  0  0  0  0  0  0  0
    0.0000   -3.7211    0.0000 C   0  0  0  0  0  0  0  0  0  0  0  0
    0.0000   -4.5461    0.0000 C   0  0  0  0  0  0  0  0  0  0  0  0
    4.9846   -0.8481    0.0000 C   0  0  0  0  0  0  0  0  0  0  0  0
    4.2577   -2.1000    0.0000 C   0  0  0  0  0  0  0  0  0  0  0  0
    5.7115   -1.2635    0.0000 C   0  0  0  0  0  0  0  0  0  0  0  0
    4.9846   -2.5269    0.0000 C   0  0  0  0  0  0  0  0  0  0  0  0
  1  3  1  0
  1  4  1  0
  1  9  2  0
  2  6  1  0
  2 10  2  0
  2  8  1  0
  3  5  1  0
  3  8  1  1
  4  6  2  0
  4 18  1  0
  5 19  1  0
  5 15  1  0
  6 14  1  0
  7 12  1  0
  7 16  1  0
  7 17  2  0
  9 13  1  0
 10 11  1  0
 11 14  1  0
 13 12  1  1
 13 15  1  0
 14 21  2  0
 16 22  1  0
 16 23  1  0
 18 20  2  0
 20 21  1  0
 22 24  1  0
 23 25  1  0
M  END
>  <Formula>  (37) 
C20H26N4O

>  <FW>  (37) 
338.4466

>  <DSSTox_CID>  (37) 
26320

>  <NR-AR>  (37) 
0

>  <NR-AR-LBD>  (37) 
0

>  <NR-ER>  (37) 
0

>  <NR-ER-LBD>  (37) 
0

>  <NR-PPAR-gamma>  (37) 
0

>  <NR-AhR>  (37) 
1

>  <SR-MMP>  (37) 
1

>  <SR-p53>  (37) 
0

$$$$
NCGC00015748-11
     RDKit          2D

 25 26  0  0  0  0  0  0  0  0999 V2000
    4.8691   -3.6988    0.0000 C   0  0  0  0  0  0  0  0  0  0  0  0
    4.1551   -4.1122    0.0000 O   0  0  0  0  0  0  0  0  0  0  0  0
    3.4518   -3.6988    0.0000 C   0  0  0  0  0  0  0  0  0  0  0  0
    2.7325   -4.1122    0.0000 O   0  0  0  0  0  0  0  0  0  0  0  0
    3.4518   -2.8828    0.0000 C   0  0  0  0  0  0  0  0  0  0  0  0
    4.1551   -2.4694    0.0000 C   0  0  0  0  0  0  0  0  0  0  0  0
    4.8691   -2.8828    0.0000 C   0  0  0  0  0  0  0  0  0  0  0  0
    4.1551   -1.6427    0.0000 N   0  0  0  0  0  0  0  0  0  0  0  0
    3.4518   -1.2293    0.0000 C   0  0  0  0  0  0  0  0  0  0  0  0
    2.7325   -1.6427    0.0000 C   0  0  0  0  0  0  0  0  0  0  0  0
    2.7325   -2.4694    0.0000 C   0  0  0  0  0  0  0  0  0  0  0  0
    1.5461   -3.2156    0.0000 C   0  0  0  0  0  0  0  0  0  0  0  0
    0.9233   -2.6788    0.0000 C   0  0  0  0  0  0  0  0  0  0  0  0
    0.1503   -2.9687    0.0000 C   0  0  0  0  0  0  0  0  0  0  0  0
    0.0000   -3.7685    0.0000 C   0  0  0  0  0  0  0  0  0  0  0  0
    0.6227   -4.3054    0.0000 C   0  0  0  0  0  0  0  0  0  0  0  0
    1.4065   -4.0155    0.0000 C   0  0  0  0  0  0  0  0  0  0  0  0
    1.7125   -4.6382    0.0000 N   0  0  0  0  0  0  0  0  0  0  0  0
    2.6090   -5.0784    0.0000 O   0  0  0  0  0  0  0  0  0  0  0  0
    1.2401   -5.3683    0.0000 O   0  0  0  0  0  0  0  0  0  0  0  0
    2.0132   -1.2293    0.0000 C   0  0  0  0  0  0  0  0  0  0  0  0
    1.3099   -1.6427    0.0000 O   0  0  0  0  0  0  0  0  0  0  0  0
    2.0132   -0.4133    0.0000 O   0  0  0  0  0  0  0  0  0  0  0  0
    2.7325    0.0000    0.0000 C   0  0  0  0  0  0  0  0  0  0  0  0
    3.4518   -0.4133    0.0000 C   0  0  0  0  0  0  0  0  0  0  0  0
  1  2  1  0
  2  3  1  0
  3  4  2  0
  3  5  1  0
  5  6  2  0
  5 11  1  0
  6  7  1  0
  6  8  1  0
  8  9  1  0
  9 10  2  0
  9 25  1  0
 10 11  1  0
 10 21  1  0
 11 12  1  0
 12 13  2  0
 12 17  1  0
 13 14  1  0
 14 15  2  0
 15 16  1  0
 16 17  2  0
 17 18  1  0
 18 19  2  0
 18 20  1  0
 21 22  2  0
 21 23  1  0
 23 24  1  0
M  CHG  2  18   1  20  -1
M  END
>  <Formula>  (38) 
C17H18N2O6

>  <FW>  (38) 
346.3346

>  <DSSTox_CID>  (38) 
5715

>  <NR-Aromatase>  (38) 
1

>  <NR-AR>  (38) 
0

>  <NR-AR-LBD>  (38) 
0

>  <NR-ER>  (38) 
0

>  <NR-PPAR-gamma>  (38) 
0

>  <NR-AhR>  (38) 
1

>  <SR-ATAD5>  (38) 
0

>  <SR-MMP>  (38) 
0

>  <SR-p53>  (38) 
0

$$$$
NCGC00094476-03
     RDKit          2D

 25 28  0  0  1  0  0  0  0  0999 V2000
    2.1378   -4.9652    0.0000 C   0  0  0  0  0  0  0  0  0  0  0  0
    2.1378   -3.3082    0.0000 C   0  0  0  0  0  0  0  0  0  0  0  0
    2.8563   -3.7137    0.0000 C   0  0  0  0  0  0  0  0  0  0  0  0
    1.4310   -3.7137    0.0000 C   0  0  0  0  0  0  0  0  0  0  0  0
    3.5689   -3.3082    0.0000 N   0  0  0  0  0  0  0  0  0  0  0  0
    1.4310   -4.5538    0.0000 C   0  0  0  0  0  0  0  0  0  0  0  0
    3.5689   -0.8285    0.0000 C   0  0  0  0  0  0  0  0  0  0  0  0
    2.8563   -4.5538    0.0000 C   0  0  0  0  0  0  0  0  0  0  0  0
    2.1378   -5.7936    0.0000 C   0  0  0  0  0  0  0  0  0  0  0  0
    0.7068   -5.7936    0.0000 N   0  0  0  0  0  0  0  0  0  0  0  0
    2.8563   -1.2398    0.0000 N   0  0  0  0  0  0  0  0  0  0  0  0
    2.8563   -2.0799    0.0000 C   0  0  0  0  0  0  0  0  0  0  0  0
    0.7068   -4.9652    0.0000 C   0  0  0  0  0  0  0  0  0  0  0  0
    3.5689   -2.4855    0.0000 C   0  0  0  0  0  0  0  0  0  0  0  0
    2.1378   -2.4855    0.0000 C   0  0  0  0  0  0  0  0  0  0  0  0
    4.2873   -1.2398    0.0000 N   0  0  0  0  0  0  0  0  0  0  0  0
    3.5689    0.0000    0.0000 O   0  0  0  0  0  0  0  0  0  0  0  0
    0.7068   -3.3082    0.0000 C   0  0  0  0  0  0  0  0  0  0  0  0
    4.2873   -3.7369    0.0000 C   0  0  0  0  0  0  0  0  0  0  0  0
    0.0000   -3.7137    0.0000 C   0  0  0  0  0  0  0  0  0  0  0  0
    0.0000   -4.5538    0.0000 C   0  0  0  0  0  0  0  0  0  0  0  0
    4.2873   -2.0799    0.0000 C   0  0  0  0  0  0  0  0  0  0  0  0
    4.9941   -0.8285    0.0000 C   0  0  0  0  0  0  0  0  0  0  0  0
    4.9941   -2.4855    0.0000 C   0  0  0  0  0  0  0  0  0  0  0  0
    4.9941    0.0000    0.0000 C   0  0  0  0  0  0  0  0  0  0  0  0
  1  6  1  0
  1  8  1  0
  1  9  2  0
  2  3  1  0
  2 15  1  1
  2  4  1  0
  3  8  1  6
  3  5  1  0
  4  6  2  0
  4 18  1  0
  5 14  1  0
  5 19  1  0
  6 13  1  0
  7 11  1  0
  7 16  1  0
  7 17  2  0
  9 10  1  0
 10 13  1  0
 12 11  1  6
 12 14  1  0
 12 15  1  0
 13 21  2  0
 16 22  1  0
 16 23  1  0
 18 20  2  0
 20 21  1  0
 22 24  1  0
 23 25  1  0
M  END
>  <Formula>  (39) 
C20H28N4O

>  <FW>  (39) 
340.4625

>  <DSSTox_CID>  (39) 
25809

>  <NR-Aromatase>  (39) 
0

>  <NR-AR>  (39) 
0

>  <NR-ER>  (39) 
1

>  <NR-ER-LBD>  (39) 
0

>  <NR-PPAR-gamma>  (39) 
0

>  <NR-AhR>  (39) 
1

>  <SR-ATAD5>  (39) 
0

>  <SR-MMP>  (39) 
0

>  <SR-p53>  (39) 
0

$$$$
NCGC00093857-01
     RDKit          2D

 22 22  0  0  0  0  0  0  0  0999 V2000
    0.6341   -3.9933    0.0000 Cl  0  0  0  0  0  0  0  0  0  0  0  0
    4.2616   -2.0180    0.0000 C   0  0  0  0  0  0  0  0  0  0  0  0
    3.5421   -2.4326    0.0000 C   0  0  0  0  0  0  0  0  0  0  0  0
    4.2616   -1.2071    0.0000 C   0  0  0  0  0  0  0  0  0  0  0  0
    5.0419   -2.2862    0.0000 C   0  0  0  0  0  0  0  0  0  0  0  0
    2.8471   -2.0180    0.0000 C   0  0  0  0  0  0  0  0  0  0  0  0
    3.5421   -3.2617    0.0000 N   0  0  0  0  0  0  0  0  0  0  0  0
    5.0419   -0.9572    0.0000 N   0  0  0  0  0  0  0  0  0  0  0  0
    3.5421   -0.7986    0.0000 N   0  0  0  0  0  0  0  0  0  0  0  0
    5.5296   -1.6217    0.0000 N   0  0  0  0  0  0  0  0  0  0  0  0
    2.8471   -1.2071    0.0000 C   0  0  0  0  0  0  0  0  0  0  0  0
    2.1338   -2.4326    0.0000 C   0  0  0  0  0  0  0  0  0  0  0  0
    4.2616   -3.6641    0.0000 N   0  0  0  0  0  0  0  0  0  0  0  0
    5.3041   -0.1707    0.0000 C   0  0  0  0  0  0  0  0  0  0  0  0
    1.4205   -2.0180    0.0000 O   0  0  0  0  0  0  0  0  0  0  0  0
    2.1338   -3.2617    0.0000 O   0  0  0  0  0  0  0  0  0  0  0  0
    4.2616   -4.4932    0.0000 C   0  0  0  0  0  0  0  0  0  0  0  0
    6.0966    0.0000    0.0000 C   0  0  0  0  0  0  0  0  0  0  0  0
    0.7133   -2.4326    0.0000 C   0  0  0  0  0  0  0  0  0  0  0  0
    4.9748   -4.9078    0.0000 C   0  0  0  0  0  0  0  0  0  0  0  0
    3.5421   -4.9078    0.0000 C   0  0  0  0  0  0  0  0  0  0  0  0
    0.0000   -2.0180    0.0000 C   0  0  0  0  0  0  0  0  0  0  0  0
  2  3  2  0
  2  4  1  0
  2  5  1  0
  3  6  1  0
  3  7  1  0
  4  8  1  0
  4  9  2  0
  5 10  2  0
  6 11  2  0
  6 12  1  0
  7 13  1  0
  8 14  1  0
  8 10  1  0
  9 11  1  0
 12 15  1  0
 12 16  2  0
 13 17  2  0
 14 18  1  0
 15 19  1  0
 17 20  1  0
 17 21  1  0
 19 22  1  0
M  END
>  <Formula>  (40) 
C14H20ClN5O2

>  <FW>  (40) 
325.7939 (36.4609+289.3330)

>  <DSSTox_CID>  (40) 
25767

>  <NR-Aromatase>  (40) 
0

>  <NR-AR>  (40) 
0

>  <NR-AR-LBD>  (40) 
0

>  <NR-ER>  (40) 
0

>  <NR-ER-LBD>  (40) 
0

>  <NR-PPAR-gamma>  (40) 
0

>  <NR-AhR>  (40) 
1

>  <SR-ATAD5>  (40) 
0

>  <SR-p53>  (40) 
0

$$$$
NCGC00072886-02
     RDKit          2D

 19 22  0  0  0  0  0  0  0  0999 V2000
    0.0000   -1.7860    0.0000 C   0  0  0  0  0  0  0  0  0  0  0  0
    0.7144   -2.1986    0.0000 O   0  0  0  0  0  0  0  0  0  0  0  0
    1.4288   -1.7860    0.0000 C   0  0  0  0  0  0  0  0  0  0  0  0
    1.4288   -0.9607    0.0000 C   0  0  0  0  0  0  0  0  0  0  0  0
    2.1432   -0.5481    0.0000 C   0  0  0  0  0  0  0  0  0  0  0  0
    2.8575   -0.9607    0.0000 C   0  0  0  0  0  0  0  0  0  0  0  0
    3.6582   -0.7144    0.0000 N   0  0  0  0  0  0  0  0  0  0  0  0
    4.0708    0.0000    0.0000 C   0  0  0  0  0  0  0  0  0  0  0  0
    4.9084    0.0000    0.0000 C   0  0  0  0  0  0  0  0  0  0  0  0
    5.3333   -0.7329    0.0000 N   0  0  0  0  0  0  0  0  0  0  0  0
    6.1585   -0.7329    0.0000 C   0  0  0  0  0  0  0  0  0  0  0  0
    4.9207   -1.4411    0.0000 C   0  0  0  0  0  0  0  0  0  0  0  0
    5.2840   -2.2171    0.0000 N   0  0  0  0  0  0  0  0  0  0  0  0
    4.8037   -2.8822    0.0000 C   0  0  0  0  0  0  0  0  0  0  0  0
    3.9784   -2.7959    0.0000 C   0  0  0  0  0  0  0  0  0  0  0  0
    3.6459   -2.0446    0.0000 C   0  0  0  0  0  0  0  0  0  0  0  0
    4.1324   -1.3734    0.0000 C   0  0  0  0  0  0  0  0  0  0  0  0
    2.8575   -1.7860    0.0000 C   0  0  0  0  0  0  0  0  0  0  0  0
    2.1432   -2.1986    0.0000 C   0  0  0  0  0  0  0  0  0  0  0  0
  1  2  1  0
  2  3  1  0
  3  4  2  0
  3 19  1  0
  4  5  1  0
  5  6  2  0
  6  7  1  0
  6 18  1  0
  7  8  1  0
  7 17  1  0
  8  9  1  0
  9 10  1  0
 10 11  1  0
 10 12  1  0
 12 13  2  0
 12 17  1  0
 13 14  1  0
 14 15  1  0
 15 16  1  0
 16 17  2  0
 16 18  1  0
 18 19  2  0
M  END
>  <Formula>  (41) 
C15H17N3O

>  <FW>  (41) 
255.3150

>  <DSSTox_CID>  (41) 
25705

>  <NR-Aromatase>  (41) 
0

>  <NR-AR>  (41) 
0

>  <NR-ER>  (41) 
0

>  <NR-ER-LBD>  (41) 
0

>  <NR-PPAR-gamma>  (41) 
0

>  <NR-AhR>  (41) 
1

>  <SR-ATAD5>  (41) 
0

>  <SR-MMP>  (41) 
0

>  <SR-p53>  (41) 
0

$$$$
NCGC00258309-01
     RDKit          2D

 35 39  0  0  1  0  0  0  0  0999 V2000
    2.1502   -3.3003    0.0000 C   0  0  0  0  0  0  0  0  0  0  0  0
    2.8602   -3.7203    0.0000 C   0  0  0  0  0  0  0  0  0  0  0  0
    2.8602   -2.0702    0.0000 O   0  0  0  0  0  0  0  0  0  0  0  0
    2.1502   -2.4802    0.0000 C   0  0  0  0  0  0  0  0  0  0  0  0
    3.5703   -3.3003    0.0000 C   0  0  0  0  0  0  0  0  0  0  0  0
    3.5703   -2.4802    0.0000 C   0  0  0  0  0  0  0  0  0  0  0  0
    6.4206   -2.4802    0.0000 O   0  0  0  0  0  0  0  0  0  0  0  0
    1.4302   -3.7203    0.0000 C   0  0  0  0  0  0  0  0  0  0  0  0
    7.1407   -2.0702    0.0000 C   0  0  0  0  0  0  0  0  0  0  0  0
    6.4206   -0.8301    0.0000 O   0  0  0  0  0  0  0  0  0  0  0  0
    5.7105   -2.0702    0.0000 C   0  0  0  0  0  0  0  0  0  0  0  0
    7.1407   -1.2401    0.0000 C   0  0  0  0  0  0  0  0  0  0  0  0
    4.2904   -2.0702    0.0000 C   0  0  0  0  0  0  0  0  0  0  0  0
    7.8507   -2.4802    0.0000 C   0  0  0  0  0  0  0  0  0  0  0  0
    5.7105   -1.2401    0.0000 C   0  0  0  0  0  0  0  0  0  0  0  0
    1.4302   -2.0702    0.0000 C   0  0  0  0  0  0  0  0  0  0  0  0
    4.9905   -2.4802    0.0000 C   0  0  0  0  0  0  0  0  0  0  0  0
    0.7200   -3.3003    0.0000 C   0  0  0  0  0  0  0  0  0  0  0  0
    7.8507   -3.3003    0.0000 C   0  0  0  0  0  0  0  0  0  0  0  0
    8.5707   -3.7203    0.0000 C   0  0  0  0  0  0  0  0  0  0  0  0
    2.8602   -4.5404    0.0000 O   0  0  0  0  0  0  0  0  0  0  0  0
    0.7200   -2.4802    0.0000 C   0  0  0  0  0  0  0  0  0  0  0  0
    9.2808   -3.3003    0.0000 C   0  0  0  0  0  0  0  0  0  0  0  0
    4.2904   -1.2401    0.0000 C   0  0  0  0  0  0  0  0  0  0  0  0
    8.5707   -2.0702    0.0000 C   0  0  0  0  0  0  0  0  0  0  0  0
    4.9905   -0.8301    0.0000 C   0  0  0  0  0  0  0  0  0  0  0  0
    9.2808   -2.4802    0.0000 C   0  0  0  0  0  0  0  0  0  0  0  0
    4.2904   -3.7203    0.0000 O   0  0  0  0  0  0  0  0  0  0  0  0
    1.4302   -4.5404    0.0000 O   0  0  0  0  0  0  0  0  0  0  0  0
    8.5707   -4.5404    0.0000 O   0  0  0  0  0  0  0  0  0  0  0  0
    7.8507   -0.8301    0.0000 C   0  0  0  0  0  0  0  0  0  0  0  0
   10.0009   -3.7203    0.0000 O   0  0  0  0  0  0  0  0  0  0  0  0
    0.0000   -2.0702    0.0000 O   0  0  0  0  0  0  0  0  0  0  0  0
    7.8507    0.0000    0.0000 O   0  0  0  0  0  0  0  0  0  0  0  0
    7.8507   -4.9504    0.0000 C   0  0  0  0  0  0  0  0  0  0  0  0
  1  2  1  0
  1  4  2  0
  1  8  1  0
  2  5  1  0
  2 21  2  0
  3  4  1  0
  6  3  1  6
  4 16  1  0
  5 28  1  1
  5  6  1  0
  6 13  1  0
  7 11  1  0
  9  7  1  1
  8 18  2  0
  8 29  1  0
  9 14  1  0
  9 12  1  0
 10 15  1  0
 10 12  1  0
 11 17  1  0
 11 15  2  0
 12 31  1  6
 13 17  2  0
 13 24  1  0
 14 19  2  0
 14 25  1  0
 15 26  1  0
 16 22  2  0
 18 22  1  0
 19 20  1  0
 20 30  1  0
 20 23  2  0
 22 33  1  0
 23 27  1  0
 23 32  1  0
 24 26  2  0
 25 27  2  0
 30 35  1  0
 31 34  1  0
M  END
>  <Formula>  (42) 
C25H22O10

>  <FW>  (42) 
482.4362

>  <DSSTox_CID>  (42) 
6018

>  <NR-AR>  (42) 
0

>  <NR-ER-LBD>  (42) 
0

>  <NR-PPAR-gamma>  (42) 
0

>  <NR-AhR>  (42) 
1

>  <SR-ARE>  (42) 
0

>  <SR-ATAD5>  (42) 
0

>  <SR-HSE>  (42) 
0

>  <SR-p53>  (42) 
0

$$$$
NCGC00183009-01
     RDKit          2D

 33 38  0  0  1  0  0  0  0  0999 V2000
    1.4384   -2.0218    0.0000 C   0  0  0  0  0  0  0  0  0  0  0  0
    1.4384   -2.8449    0.0000 C   0  0  0  0  0  0  0  0  0  0  0  0
    0.7112   -1.5903    0.0000 C   0  0  0  0  0  0  0  0  0  0  0  0
    0.7112   -3.2444    0.0000 C   0  0  0  0  0  0  0  0  0  0  0  0
    0.0000   -2.0218    0.0000 C   0  0  0  0  0  0  0  0  0  0  0  0
    0.0000   -2.8449    0.0000 C   0  0  0  0  0  0  0  0  0  0  0  0
    2.2135   -1.7501    0.0000 N   0  0  0  0  0  0  0  0  0  0  0  0
    2.6850   -2.4133    0.0000 C   0  0  0  0  0  0  0  0  0  0  0  0
    2.2135   -3.0926    0.0000 C   0  0  0  0  0  0  0  0  0  0  0  0
    3.5161   -2.4133    0.0000 C   0  0  0  0  0  0  0  0  0  0  0  0
    3.9476   -3.1405    0.0000 O   0  0  0  0  0  0  0  0  0  0  0  0
    3.9476   -1.7021    0.0000 N   0  0  0  0  0  0  0  0  0  0  0  0
    4.7387   -1.7021    0.0000 C   0  0  0  0  0  0  0  0  0  0  0  0
    5.1143   -0.9589    0.0000 C   0  0  0  0  0  0  0  0  0  0  0  0
    5.1143   -2.4453    0.0000 N   0  0  0  0  0  0  0  0  0  0  0  0
    5.9055   -0.7672    0.0000 N   0  0  0  0  0  0  0  0  0  0  0  0
    5.9055   -2.6371    0.0000 C   0  0  0  0  0  0  0  0  0  0  0  0
    6.5528   -2.1257    0.0000 C   0  0  0  0  0  0  0  0  0  0  0  0
    6.5528   -1.3025    0.0000 C   0  0  0  0  0  0  0  0  0  0  0  0
    4.6109   -0.3116    0.0000 O   0  0  0  0  0  0  0  0  0  0  0  0
    7.9911   -1.3025    0.0000 C   0  0  0  0  0  0  0  0  0  0  0  0
    7.9911   -2.1257    0.0000 C   0  0  0  0  0  0  0  0  0  0  0  0
    7.2799   -0.8790    0.0000 C   0  0  0  0  0  0  0  0  0  0  0  0
    7.2799   -2.5252    0.0000 C   0  0  0  0  0  0  0  0  0  0  0  0
    6.2091    0.0000    0.0000 C   0  0  0  0  0  0  0  0  0  0  0  0
    7.0562   -0.0719    0.0000 C   0  0  0  0  0  0  0  0  0  0  0  0
    6.6326   -3.8597    0.0000 C   0  0  0  0  0  0  0  0  0  0  0  0
    6.6326   -4.6828    0.0000 C   0  0  0  0  0  0  0  0  0  0  0  0
    5.9055   -3.4602    0.0000 C   0  0  0  0  0  0  0  0  0  0  0  0
    5.9055   -5.0824    0.0000 C   0  0  0  0  0  0  0  0  0  0  0  0
    5.1943   -3.8597    0.0000 C   0  0  0  0  0  0  0  0  0  0  0  0
    5.1943   -4.6828    0.0000 C   0  0  0  0  0  0  0  0  0  0  0  0
    7.3599   -3.4602    0.0000 F   0  0  0  0  0  0  0  0  0  0  0  0
  1  3  2  0
  1  7  1  0
  1  2  1  0
  2  4  2  0
  2  9  1  0
  3  5  1  0
  4  6  1  0
  5  6  2  0
  7  8  1  0
  8  9  2  0
  8 10  1  0
 10 11  2  0
 10 12  1  0
 13 12  1  6
 13 14  1  0
 13 15  1  0
 14 16  1  0
 14 20  2  0
 15 17  2  0
 16 25  1  0
 16 19  1  0
 17 18  1  0
 17 29  1  0
 18 24  2  0
 18 19  1  0
 19 23  2  0
 21 22  2  0
 21 23  1  0
 22 24  1  0
 23 26  1  0
 25 26  1  0
 27 28  2  0
 27 29  1  0
 27 33  1  0
 28 30  1  0
 29 31  2  0
 30 32  2  0
 31 32  1  0
M  END
>  <Formula>  (43) 
C26H19FN4O2

>  <FW>  (43) 
438.4531

>  <DSSTox_CID>  (43) 
28711

>  <NR-Aromatase>  (43) 
0

>  <NR-AR>  (43) 
0

>  <NR-AR-LBD>  (43) 
0

>  <NR-ER-LBD>  (43) 
0

>  <NR-PPAR-gamma>  (43) 
0

>  <NR-AhR>  (43) 
1

>  <SR-ARE>  (43) 
0

>  <SR-ATAD5>  (43) 
0

>  <SR-HSE>  (43) 
0

>  <SR-MMP>  (43) 
0

$$$$
NCGC00257902-01
     RDKit          2D

 26 29  0  0  0  0  0  0  0  0999 V2000
    7.0874   -0.7125    0.0000 C   0  0  0  0  0  0  0  0  0  0  0  0
    6.2624   -0.7125    0.0000 O   0  0  0  0  0  0  0  0  0  0  0  0
    5.8499   -1.4250    0.0000 C   0  0  0  0  0  0  0  0  0  0  0  0
    5.0249   -1.4250    0.0000 C   0  0  0  0  0  0  0  0  0  0  0  0
    4.6124   -0.7125    0.0000 C   0  0  0  0  0  0  0  0  0  0  0  0
    3.7874   -0.7125    0.0000 N   0  0  0  0  0  0  0  0  0  0  0  0
    3.3675    0.0000    0.0000 C   0  0  0  0  0  0  0  0  0  0  0  0
    2.5425    0.0000    0.0000 C   0  0  0  0  0  0  0  0  0  0  0  0
    2.1300   -0.7125    0.0000 C   0  0  0  0  0  0  0  0  0  0  0  0
    2.5425   -1.4250    0.0000 C   0  0  0  0  0  0  0  0  0  0  0  0
    2.1300   -2.1450    0.0000 C   0  0  0  0  0  0  0  0  0  0  0  0
    1.3050   -2.1450    0.0000 C   0  0  0  0  0  0  0  0  0  0  0  0
    0.7575   -2.7525    0.0000 O   0  0  0  0  0  0  0  0  0  0  0  0
    0.0000   -2.4224    0.0000 C   0  0  0  0  0  0  0  0  0  0  0  0
    0.0900   -1.5975    0.0000 O   0  0  0  0  0  0  0  0  0  0  0  0
    0.8925   -1.4250    0.0000 C   0  0  0  0  0  0  0  0  0  0  0  0
    1.3050   -0.7125    0.0000 C   0  0  0  0  0  0  0  0  0  0  0  0
    3.3675   -1.4250    0.0000 C   0  0  0  0  0  0  0  0  0  0  0  0
    3.7874   -2.1450    0.0000 C   0  0  0  0  0  0  0  0  0  0  0  0
    4.6124   -2.1450    0.0000 C   0  0  0  0  0  0  0  0  0  0  0  0
    5.0249   -2.8574    0.0000 C   0  0  0  0  0  0  0  0  0  0  0  0
    5.8499   -2.8574    0.0000 C   0  0  0  0  0  0  0  0  0  0  0  0
    6.2624   -2.1450    0.0000 C   0  0  0  0  0  0  0  0  0  0  0  0
    7.0874   -2.1450    0.0000 O   0  0  0  0  0  0  0  0  0  0  0  0
    7.4998   -2.8574    0.0000 C   0  0  0  0  0  0  0  0  0  0  0  0
    3.7124   -3.6824    0.0000 Cl  0  0  0  0  0  0  0  0  0  0  0  0
  1  2  1  0
  2  3  1  0
  3  4  2  0
  3 23  1  0
  4  5  1  0
  4 20  1  0
  5  6  2  0
  6  7  1  0
  6 18  1  0
  7  8  1  0
  8  9  1  0
  9 10  2  0
  9 17  1  0
 10 11  1  0
 10 18  1  0
 11 12  2  0
 12 13  1  0
 12 16  1  0
 13 14  1  0
 14 15  1  0
 15 16  1  0
 16 17  2  0
 18 19  2  0
 19 20  1  0
 20 21  2  0
 21 22  1  0
 22 23  2  0
 23 24  1  0
 24 25  1  0
M  CHG  2   6   1  26  -1
M  END
>  <Formula>  (44) 
C20H18ClNO4

>  <FW>  (44) 
371.8142 (336.3607+35.4535)

>  <DSSTox_CID>  (44) 
4602

>  <NR-AR>  (44) 
0

>  <NR-ER-LBD>  (44) 
0

>  <NR-PPAR-gamma>  (44) 
0

>  <NR-AhR>  (44) 
1

>  <SR-ARE>  (44) 
1

>  <SR-ATAD5>  (44) 
0

>  <SR-HSE>  (44) 
0

>  <SR-MMP>  (44) 
1

>  <SR-p53>  (44) 
1

$$$$
NCGC00095193-01
     RDKit          2D

 48 48  0  0  0  0  0  0  0  0999 V2000
    4.4775   -4.9983    0.0000 C   0  0  0  0  0  0  0  0  0  0  0  0
    4.5860   -3.5805    0.0000 C   0  0  0  0  0  0  0  0  0  0  0  0
    4.9693   -4.3111    0.0000 C   0  0  0  0  0  0  0  0  0  0  0  0
    4.6728   -5.7867    0.0000 C   0  0  0  0  0  0  0  0  0  0  0  0
    3.6312   -4.9331    0.0000 N   0  0  0  0  0  0  0  0  0  0  0  0
    3.7324   -3.5082    0.0000 N   0  0  0  0  0  0  0  0  0  0  0  0
    3.3418   -5.6854    0.0000 C   0  0  0  0  0  0  0  0  0  0  0  0
    1.2514   -3.3274    0.0000 C   0  0  0  0  0  0  0  0  0  0  0  0
    1.1429   -4.7451    0.0000 C   0  0  0  0  0  0  0  0  0  0  0  0
    2.1989   -5.5987    0.0000 C   0  0  0  0  0  0  0  0  0  0  0  0
    2.4159   -2.6112    0.0000 C   0  0  0  0  0  0  0  0  0  0  0  0
    3.5733   -2.6981    0.0000 C   0  0  0  0  0  0  0  0  0  0  0  0
    3.9711   -6.2424    0.0000 C   0  0  0  0  0  0  0  0  0  0  0  0
    2.1049   -3.3924    0.0000 N   0  0  0  0  0  0  0  0  0  0  0  0
    2.0036   -4.8174    0.0000 N   0  0  0  0  0  0  0  0  0  0  0  0
    1.0633   -2.5389    0.0000 C   0  0  0  0  0  0  0  0  0  0  0  0
    2.7704   -5.9097    0.0000 C   0  0  0  0  0  0  0  0  0  0  0  0
    0.7740   -4.0145    0.0000 C   0  0  0  0  0  0  0  0  0  0  0  0
    3.0308   -2.3653    0.0000 C   0  0  0  0  0  0  0  0  0  0  0  0
    1.7867   -2.1049    0.0000 C   0  0  0  0  0  0  0  0  0  0  0  0
    0.8463   -5.4973    0.0000 C   0  0  0  0  0  0  0  0  0  0  0  0
    1.4828   -6.0471    0.0000 C   0  0  0  0  0  0  0  0  0  0  0  0
    4.8970   -2.7993    0.0000 C   0  0  0  0  0  0  0  0  0  0  0  0
    5.4178   -6.1122    0.0000 C   0  0  0  0  0  0  0  0  0  0  0  0
    4.2605   -2.3002    0.0000 C   0  0  0  0  0  0  0  0  0  0  0  0
    5.7650   -4.3762    0.0000 C   0  0  0  0  0  0  0  0  0  0  0  0
    5.4395   -2.1339    0.0000 C   0  0  0  0  0  0  0  0  0  0  0  0
    6.2279   -3.6890    0.0000 C   0  0  0  0  0  0  0  0  0  0  0  0
    0.2821   -2.2351    0.0000 C   0  0  0  0  0  0  0  0  0  0  0  0
    5.6782   -0.8029    0.0000 C   0  0  0  0  0  0  0  0  0  0  0  0
    5.5552   -6.9151    0.0000 O   0  0  0  0  0  0  0  0  0  0  0  0
    7.0453   -3.7541    0.0000 O   0  0  0  0  0  0  0  0  0  0  0  0
    5.3889    0.0000    0.0000 O   0  0  0  0  0  0  0  0  0  0  0  0
    5.1357   -1.4033    0.0000 C   0  0  0  0  0  0  0  0  0  0  0  0
    6.0832   -5.6059    0.0000 O   0  0  0  0  0  0  0  0  0  0  0  0
    5.8662   -2.9585    0.0000 O   0  0  0  0  0  0  0  0  0  0  0  0
    1.4250   -6.8717    0.0000 C   0  0  0  0  0  0  0  0  0  0  0  0
    6.5028   -0.8608    0.0000 O   0  0  0  0  0  0  0  0  0  0  0  0
    3.9133   -7.0742    0.0000 C   0  0  0  0  0  0  0  0  0  0  0  0
    0.0000   -5.7505    0.0000 C   0  0  0  0  0  0  0  0  0  0  0  0
    0.7088   -7.2334    0.0000 C   0  0  0  0  0  0  0  0  0  0  0  0
    1.8373   -1.2875    0.0000 C   0  0  0  0  0  0  0  0  0  0  0  0
    0.1519   -1.4178    0.0000 C   0  0  0  0  0  0  0  0  0  0  0  0
    4.3255   -1.4683    0.0000 C   0  0  0  0  0  0  0  0  0  0  0  0
    2.7415   -4.0941    0.0000 Cu  0  0  0  0  0 15  0  0  0  0  0  0
    6.3582   -0.1302    0.0000 Na  0  0  0  0  0 15  0  0  0  0  0  0
    6.8355   -2.9078    0.0000 Na  0  0  0  0  0 15  0  0  0  0  0  0
    6.2930   -6.4594    0.0000 Na  0  0  0  0  0 15  0  0  0  0  0  0
  1  3  2  0
  1  4  1  0
  1  5  1  0
  2  3  1  0
  2  6  2  0
  2 23  1  0
  3 26  1  0
  4 13  2  0
  4 24  1  0
  5  7  1  0
  6 12  1  0
  7 17  2  0
  7 13  1  0
  8 18  1  0
  8 14  1  0
  8 16  2  0
  9 15  1  0
  9 18  2  0
  9 21  1  0
 10 17  1  0
 10 15  2  0
 10 22  1  0
 11 19  1  0
 11 14  1  0
 11 20  2  0
 12 19  2  0
 12 25  1  0
 13 39  1  0
 16 20  1  0
 16 29  1  0
 20 42  1  0
 21 22  2  0
 21 40  1  0
 22 37  1  0
 23 25  1  0
 23 27  1  0
 24 31  2  0
 24 35  1  0
 25 44  1  0
 26 28  1  0
 27 34  1  0
 28 32  2  0
 28 36  1  0
 29 43  2  0
 30 34  1  0
 30 33  2  0
 30 38  1  0
 37 41  1  0
M  CHG  8   5  -1  14  -1  35  -1  36  -1  38  -1  45   2  46   1  47   1
M  CHG  1  48   1
M  END
>  <Formula>  (45) 
C34H31CuN4Na3O6

>  <FW>  (45) 
724.1484 (591.6359+63.5449+22.9892+22.9892+22.9892)

>  <DSSTox_CID>  (45) 
25956

>  <NR-Aromatase>  (45) 
0

>  <NR-AR>  (45) 
0

>  <NR-AR-LBD>  (45) 
0

>  <NR-ER>  (45) 
0

>  <NR-ER-LBD>  (45) 
0

>  <NR-PPAR-gamma>  (45) 
0

>  <NR-AhR>  (45) 
1

>  <SR-ATAD5>  (45) 
0

>  <SR-MMP>  (45) 
0

>  <SR-p53>  (45) 
0

$$$$
NCGC00024027-05
     RDKit          2D

 26 29  0  0  1  0  0  0  0  0999 V2000
    2.1483   -2.4682    0.0000 C   0  0  0  0  0  0  0  0  0  0  0  0
    2.1483   -4.1194    0.0000 C   0  0  0  0  0  0  0  0  0  0  0  0
    1.4284   -2.8967    0.0000 C   0  0  0  0  0  0  0  0  0  0  0  0
    2.8567   -2.8967    0.0000 C   0  0  0  0  0  0  0  0  0  0  0  0
    1.4284   -3.7195    0.0000 C   0  0  0  0  0  0  0  0  0  0  0  0
    2.1483   -1.6512    0.0000 C   0  0  0  0  0  0  0  0  0  0  0  0
    2.8567   -1.2513    0.0000 C   0  0  0  0  0  0  0  0  0  0  0  0
    0.9370   -4.9193    0.0000 N   0  0  0  0  0  0  0  0  0  0  0  0
    3.5766   -2.4682    0.0000 N   0  0  0  0  0  0  0  0  0  0  0  0
    1.9254   -4.9193    0.0000 C   0  0  0  0  0  0  0  0  0  0  0  0
    2.8567   -0.4228    0.0000 C   0  0  0  0  0  0  0  0  0  0  0  0
    0.7199   -4.1194    0.0000 C   0  0  0  0  0  0  0  0  0  0  0  0
    2.8567   -3.7195    0.0000 C   0  0  0  0  0  0  0  0  0  0  0  0
    3.5766   -1.6512    0.0000 C   0  0  0  0  0  0  0  0  0  0  0  0
    3.5766    0.0000    0.0000 N   0  0  0  0  0  0  0  0  0  0  0  0
    2.1483    0.0000    0.0000 O   0  0  0  0  0  0  0  0  0  0  0  0
    0.7199   -2.4682    0.0000 C   0  0  0  0  0  0  0  0  0  0  0  0
    0.3885   -5.5363    0.0000 C   0  0  0  0  0  0  0  0  0  0  0  0
    4.2851   -2.8967    0.0000 C   0  0  0  0  0  0  0  0  0  0  0  0
    0.0000   -3.7195    0.0000 C   0  0  0  0  0  0  0  0  0  0  0  0
    4.2851   -0.4228    0.0000 C   0  0  0  0  0  0  0  0  0  0  0  0
    0.0000   -2.8967    0.0000 C   0  0  0  0  0  0  0  0  0  0  0  0
    5.0050   -1.6512    0.0000 O   0  0  0  0  0  0  0  0  0  0  0  0
    4.2851   -1.2513    0.0000 C   0  0  0  0  0  0  0  0  0  0  0  0
    5.0050    0.0000    0.0000 C   0  0  0  0  0  0  0  0  0  0  0  0
    5.7135   -0.4228    0.0000 C   0  0  0  0  0  0  0  0  0  0  0  0
  1  3  1  0
  1  4  1  0
  1  6  2  0
  2 13  1  0
  2 10  2  0
  2  5  1  0
  3  5  2  0
  3 17  1  0
  4  9  1  0
  4 13  1  6
  5 12  1  0
  6  7  1  0
  7 11  1  1
  7 14  1  0
  8 12  1  0
  8 18  1  0
  8 10  1  0
  9 19  1  0
  9 14  1  0
 11 15  1  0
 11 16  2  0
 12 20  2  0
 15 21  1  0
 17 22  2  0
 20 22  1  0
 21 24  1  1
 21 25  1  0
 23 24  1  0
 25 26  1  0
M  END
>  <Formula>  (46) 
C21H27N3O2

>  <FW>  (46) 
353.4580

>  <DSSTox_CID>  (46) 
3307

>  <NR-Aromatase>  (46) 
0

>  <NR-AR>  (46) 
0

>  <NR-AR-LBD>  (46) 
0

>  <NR-ER>  (46) 
0

>  <NR-ER-LBD>  (46) 
0

>  <NR-PPAR-gamma>  (46) 
0

>  <NR-AhR>  (46) 
1

>  <SR-ATAD5>  (46) 
0

>  <SR-MMP>  (46) 
0

>  <SR-p53>  (46) 
0

$$$$
NCGC00164560-01
     RDKit          2D

 21 24  0  0  1  0  0  0  0  0999 V2000
    1.5925   -4.8339    0.0000 C   0  0  0  0  0  0  0  0  0  0  0  0
    1.8514   -5.6273    0.0000 C   0  0  0  0  0  0  0  0  0  0  0  0
    2.6730   -5.6273    0.0000 C   0  0  0  0  0  0  0  0  0  0  0  0
    2.9318   -4.8395    0.0000 C   0  0  0  0  0  0  0  0  0  0  0  0
    2.2565   -4.3443    0.0000 C   0  0  0  0  0  0  0  0  0  0  0  0
    0.8159   -4.5806    0.0000 C   0  0  0  0  0  0  0  0  0  0  0  0
    2.1384   -3.1794    0.0000 C   0  0  0  0  0  0  0  0  0  0  0  0
    2.1384   -2.3635    0.0000 C   0  0  0  0  0  0  0  0  0  0  0  0
    2.9318   -2.1102    0.0000 N   0  0  0  0  0  0  0  0  0  0  0  0
    2.9318   -3.4383    0.0000 N   0  0  0  0  0  0  0  0  0  0  0  0
    3.4214   -2.7743    0.0000 C   0  0  0  0  0  0  0  0  0  0  0  0
    1.4237   -3.6015    0.0000 N   0  0  0  0  0  0  0  0  0  0  0  0
    0.7146   -2.3635    0.0000 N   0  0  0  0  0  0  0  0  0  0  0  0
    0.7146   -3.1794    0.0000 C   0  0  0  0  0  0  0  0  0  0  0  0
    1.4237   -1.9471    0.0000 C   0  0  0  0  0  0  0  0  0  0  0  0
    0.0000   -3.6015    0.0000 N   0  0  0  0  0  0  0  0  0  0  0  0
    1.4237   -1.1255    0.0000 N   0  0  0  0  0  0  0  0  0  0  0  0
    2.1384   -0.7034    0.0000 C   0  0  0  0  0  0  0  0  0  0  0  0
    2.9712   -0.7034    0.0000 C   0  0  0  0  0  0  0  0  0  0  0  0
    2.5548    0.0000    0.0000 C   0  0  0  0  0  0  0  0  0  0  0  0
    0.1970   -5.1377    0.0000 O   0  0  0  0  0  0  0  0  0  0  0  0
  1  2  1  0
  1  5  1  0
  1  6  1  1
  2  3  2  0
  3  4  1  0
  4  5  1  0
  4 10  1  6
  6 21  1  0
  7  8  2  0
  7 10  1  0
  7 12  1  0
  8  9  1  0
  8 15  1  0
  9 11  2  0
 10 11  1  0
 12 14  2  0
 13 14  1  0
 13 15  2  0
 14 16  1  0
 15 17  1  0
 17 18  1  0
 18 19  1  0
 18 20  1  0
 19 20  1  0
M  END
>  <Formula>  (47) 
C14H18N6O

>  <FW>  (47) 
286.3323

>  <DSSTox_CID>  (47) 
26444

>  <NR-AR>  (47) 
0

>  <NR-AR-LBD>  (47) 
0

>  <NR-ER>  (47) 
1

>  <NR-ER-LBD>  (47) 
0

>  <NR-PPAR-gamma>  (47) 
0

>  <NR-AhR>  (47) 
1

>  <SR-ATAD5>  (47) 
1

>  <SR-MMP>  (47) 
0

>  <SR-p53>  (47) 
0

$$$$
NCGC00017259-04
     RDKit          2D

 31 35  0  0  1  0  0  0  0  0999 V2000
    2.1482   -3.6847    0.0000 C   0  0  0  0  0  0  0  0  0  0  0  0
    2.1482   -5.3350    0.0000 C   0  0  0  0  0  0  0  0  0  0  0  0
    1.4227   -4.1044    0.0000 C   0  0  0  0  0  0  0  0  0  0  0  0
    2.8382   -4.1044    0.0000 C   0  0  0  0  0  0  0  0  0  0  0  0
    1.4227   -4.9295    0.0000 C   0  0  0  0  0  0  0  0  0  0  0  0
    0.9247   -6.1317    0.0000 N   0  0  0  0  0  0  0  0  0  0  0  0
    3.5638   -3.6847    0.0000 N   0  0  0  0  0  0  0  0  0  0  0  0
    1.9349   -6.1317    0.0000 C   0  0  0  0  0  0  0  0  0  0  0  0
    0.7185   -5.3350    0.0000 C   0  0  0  0  0  0  0  0  0  0  0  0
    2.8382   -4.9295    0.0000 C   0  0  0  0  0  0  0  0  0  0  0  0
    4.9865   -1.2235    0.0000 C   0  0  0  0  0  0  0  0  0  0  0  0
    4.2751   -1.6432    0.0000 C   0  0  0  0  0  0  0  0  0  0  0  0
    2.1482   -2.8596    0.0000 C   0  0  0  0  0  0  0  0  0  0  0  0
    3.5638   -2.8596    0.0000 C   0  0  0  0  0  0  0  0  0  0  0  0
    2.8382   -2.4541    0.0000 C   0  0  0  0  0  0  0  0  0  0  0  0
    5.6907    0.0000    0.0000 N   0  0  0  0  0  0  0  0  0  0  0  0
    3.5638   -1.2235    0.0000 O   0  0  0  0  0  0  0  0  0  0  0  0
    5.6907   -1.6432    0.0000 C   0  0  0  0  0  0  0  0  0  0  0  0
    4.2751   -2.4541    0.0000 O   0  0  0  0  0  0  0  0  0  0  0  0
    1.4227   -3.2792    0.0000 O   0  0  0  0  0  0  0  0  0  0  0  0
    2.8382   -1.6432    0.0000 C   0  0  0  0  0  0  0  0  0  0  0  0
    4.9865   -0.4054    0.0000 C   0  0  0  0  0  0  0  0  0  0  0  0
    6.4091   -1.2235    0.0000 C   0  0  0  0  0  0  0  0  0  0  0  0
    0.7185   -3.6847    0.0000 C   0  0  0  0  0  0  0  0  0  0  0  0
    0.3841   -6.7364    0.0000 C   0  0  0  0  0  0  0  0  0  0  0  0
    4.2751   -4.1044    0.0000 C   0  0  0  0  0  0  0  0  0  0  0  0
    7.1134   -1.6432    0.0000 Br  0  0  0  0  0  0  0  0  0  0  0  0
    0.0000   -4.9295    0.0000 C   0  0  0  0  0  0  0  0  0  0  0  0
    6.4091   -0.4054    0.0000 C   0  0  0  0  0  0  0  0  0  0  0  0
    0.0000   -4.1044    0.0000 C   0  0  0  0  0  0  0  0  0  0  0  0
    1.4227   -2.4541    0.0000 C   0  0  0  0  0  0  0  0  0  0  0  0
  1  3  1  0
  1  4  1  0
  1 13  1  0
  1 20  1  6
  2 10  1  0
  2  8  2  0
  2  5  1  0
  3  5  1  0
  3 24  2  0
  4  7  1  0
  4 10  1  6
  5  9  2  0
  6  9  1  0
  6 25  1  0
  6  8  1  0
  7 26  1  0
  7 14  1  0
  9 28  1  0
 11 12  1  0
 11 18  2  0
 11 22  1  0
 12 17  1  0
 12 19  2  0
 13 15  1  0
 14 15  1  0
 15 21  1  1
 16 22  2  0
 16 29  1  0
 17 21  1  0
 18 23  1  0
 20 31  1  0
 23 27  1  0
 23 29  2  0
 24 30  1  0
 28 30  2  0
M  END
>  <Formula>  (48) 
C24H26BrN3O3

>  <FW>  (48) 
484.3855

>  <DSSTox_CID>  (48) 
25607

>  <NR-AR>  (48) 
0

>  <NR-AR-LBD>  (48) 
0

>  <NR-ER>  (48) 
0

>  <NR-ER-LBD>  (48) 
0

>  <NR-PPAR-gamma>  (48) 
0

>  <NR-AhR>  (48) 
1

>  <SR-ATAD5>  (48) 
0

>  <SR-MMP>  (48) 
0

>  <SR-p53>  (48) 
0

$$$$
NCGC00255296-01
     RDKit          2D

 31 34  0  0  0  0  0  0  0  0999 V2000
    5.7916   -3.5774    0.0000 O   0  0  0  0  0  0  0  0  0  0  0  0
    6.1997   -2.8654    0.0000 C   0  0  0  0  0  0  0  0  0  0  0  0
    5.7916   -2.1447    0.0000 C   0  0  0  0  0  0  0  0  0  0  0  0
    6.1997   -1.4327    0.0000 C   0  0  0  0  0  0  0  0  0  0  0  0
    5.7916   -0.7120    0.0000 C   0  0  0  0  0  0  0  0  0  0  0  0
    6.1997    0.0000    0.0000 O   0  0  0  0  0  0  0  0  0  0  0  0
    4.9580   -0.7120    0.0000 C   0  0  0  0  0  0  0  0  0  0  0  0
    4.5499   -1.4327    0.0000 C   0  0  0  0  0  0  0  0  0  0  0  0
    7.0333   -1.4327    0.0000 C   0  0  0  0  0  0  0  0  0  0  0  0
    7.4413   -0.7120    0.0000 O   0  0  0  0  0  0  0  0  0  0  0  0
    7.4413   -2.1447    0.0000 C   0  0  0  0  0  0  0  0  0  0  0  0
    8.2662   -2.1447    0.0000 C   0  0  0  0  0  0  0  0  0  0  0  0
    8.6830   -1.4327    0.0000 O   0  0  0  0  0  0  0  0  0  0  0  0
    8.6830   -2.8654    0.0000 C   0  0  0  0  0  0  0  0  0  0  0  0
    8.2662   -3.5774    0.0000 C   0  0  0  0  0  0  0  0  0  0  0  0
    7.4413   -3.5774    0.0000 C   0  0  0  0  0  0  0  0  0  0  0  0
    7.0333   -4.2981    0.0000 N   0  0  0  0  0  0  0  0  0  0  0  0
    6.1997   -4.2981    0.0000 O   0  0  0  0  0  0  0  0  0  0  0  0
    7.4413   -5.0101    0.0000 O   0  0  0  0  0  0  0  0  0  0  0  0
    4.9580   -2.1447    0.0000 C   0  0  0  0  0  0  0  0  0  0  0  0
    4.5499   -2.8654    0.0000 N   0  0  0  0  0  0  0  0  0  0  0  0
    3.7250   -2.8654    0.0000 C   0  0  0  0  0  0  0  0  0  0  0  0
    3.3083   -3.5774    0.0000 C   0  0  0  0  0  0  0  0  0  0  0  0
    2.4833   -3.5774    0.0000 C   0  0  0  0  0  0  0  0  0  0  0  0
    2.0666   -2.8654    0.0000 C   0  0  0  0  0  0  0  0  0  0  0  0
    2.4833   -2.1447    0.0000 C   0  0  0  0  0  0  0  0  0  0  0  0
    1.2417   -2.8654    0.0000 C   0  0  0  0  0  0  0  0  0  0  0  0
    0.8249   -3.5774    0.0000 C   0  0  0  0  0  0  0  0  0  0  0  0
    0.0000   -3.5774    0.0000 O   0  0  0  0  0  0  0  0  0  0  0  0
    3.3083   -2.1447    0.0000 C   0  0  0  0  0  0  0  0  0  0  0  0
    7.0333   -2.8654    0.0000 C   0  0  0  0  0  0  0  0  0  0  0  0
  1  2  2  0
  2  3  1  0
  2 31  1  0
  3  4  2  0
  3 20  1  0
  4  5  1  0
  4  9  1  0
  5  6  1  0
  5  7  2  0
  7  8  1  0
  8 20  2  0
  9 10  2  0
  9 11  1  0
 11 12  1  0
 11 31  2  0
 12 13  1  0
 12 14  2  0
 14 15  1  0
 15 16  2  0
 16 17  1  0
 16 31  1  0
 17 18  1  0
 17 19  2  0
 20 21  1  0
 21 22  1  0
 22 23  2  0
 22 30  1  0
 23 24  1  0
 24 25  2  0
 25 26  1  0
 25 27  1  0
 26 30  2  0
 27 28  1  0
 28 29  1  0
M  CHG  2  17   1  18  -1
M  END
>  <Formula>  (49) 
C22H16N2O7

>  <FW>  (49) 
420.3716

>  <DSSTox_CID>  (49) 
5209

>  <NR-AR>  (49) 
0

>  <NR-ER>  (49) 
0

>  <NR-ER-LBD>  (49) 
0

>  <NR-AhR>  (49) 
1

>  <SR-ARE>  (49) 
1

>  <SR-ATAD5>  (49) 
0

>  <SR-HSE>  (49) 
0

>  <SR-MMP>  (49) 
1

>  <SR-p53>  (49) 
0

$$$$
NCGC00168265-01
     RDKit          2D

 24 27  0  0  1  0  0  0  0  0999 V2000
    2.1427   -2.5344    0.0000 C   0  0  0  0  0  0  0  0  0  0  0  0
    2.8252   -1.3117    0.0000 C   0  0  0  0  0  0  0  0  0  0  0  0
    2.1427   -1.7213    0.0000 C   0  0  0  0  0  0  0  0  0  0  0  0
    2.1427   -4.1963    0.0000 C   0  0  0  0  0  0  0  0  0  0  0  0
    2.8252   -2.9558    0.0000 C   0  0  0  0  0  0  0  0  0  0  0  0
    1.4067   -2.9558    0.0000 C   0  0  0  0  0  0  0  0  0  0  0  0
    3.5434   -2.5344    0.0000 N   0  0  0  0  0  0  0  0  0  0  0  0
    1.4067   -3.7808    0.0000 C   0  0  0  0  0  0  0  0  0  0  0  0
    3.5256   -0.8725    0.0000 C   0  0  0  0  0  0  0  0  0  0  0  0
    2.8252   -3.7808    0.0000 C   0  0  0  0  0  0  0  0  0  0  0  0
    2.1427   -5.0273    0.0000 C   0  0  0  0  0  0  0  0  0  0  0  0
    0.7063   -5.0273    0.0000 N   0  0  0  0  0  0  0  0  0  0  0  0
    3.5434   -1.7213    0.0000 C   0  0  0  0  0  0  0  0  0  0  0  0
    0.7063   -4.1963    0.0000 C   0  0  0  0  0  0  0  0  0  0  0  0
    4.3328   -1.2227    0.0000 N   0  0  0  0  0  0  0  0  0  0  0  0
    3.5256    0.0000    0.0000 O   0  0  0  0  0  0  0  0  0  0  0  0
    0.7063   -2.5344    0.0000 C   0  0  0  0  0  0  0  0  0  0  0  0
    4.2735   -2.9677    0.0000 C   0  0  0  0  0  0  0  0  0  0  0  0
    0.0000   -2.9558    0.0000 C   0  0  0  0  0  0  0  0  0  0  0  0
    0.0000   -3.7808    0.0000 C   0  0  0  0  0  0  0  0  0  0  0  0
    5.1222   -0.7894    0.0000 C   0  0  0  0  0  0  0  0  0  0  0  0
    4.3328   -2.0655    0.0000 C   0  0  0  0  0  0  0  0  0  0  0  0
    5.1519   -2.5760    0.0000 C   0  0  0  0  0  0  0  0  0  0  0  0
    5.9354   -1.2227    0.0000 C   0  0  0  0  0  0  0  0  0  0  0  0
  1  3  2  0
  1  5  1  0
  1  6  1  0
  2  3  1  0
  2  9  1  1
  2 13  1  0
  4  8  1  0
  4 11  2  0
  4 10  1  0
  5  7  1  0
  5 10  1  6
  6  8  2  0
  6 17  1  0
  7 13  1  0
  7 18  1  0
  8 14  1  0
  9 15  1  0
  9 16  2  0
 11 12  1  0
 12 14  1  0
 14 20  2  0
 15 21  1  0
 15 22  1  0
 17 19  2  0
 19 20  1  0
 21 24  1  0
 22 23  1  0
M  END
>  <Formula>  (50) 
C20H25N3O

>  <FW>  (50) 
323.4320

>  <DSSTox_CID>  (50) 
3231

>  <NR-Aromatase>  (50) 
0

>  <NR-AR>  (50) 
0

>  <NR-AR-LBD>  (50) 
0

>  <NR-ER>  (50) 
1

>  <NR-ER-LBD>  (50) 
1

>  <NR-PPAR-gamma>  (50) 
0

>  <NR-AhR>  (50) 
1

>  <SR-ATAD5>  (50) 
0

>  <SR-MMP>  (50) 
1

>  <SR-p53>  (50) 
0

$$$$
NCGC00167834-01
     RDKit          2D

 37 38  0  0  1  0  0  0  0  0999 V2000
    8.5708   -1.6501    0.0000 C   0  0  0  0  0  0  0  0  0  0  0  0
    7.8508   -1.2401    0.0000 C   0  0  0  0  0  0  0  0  0  0  0  0
    8.5708   -2.4802    0.0000 C   0  0  0  0  0  0  0  0  0  0  0  0
    7.1406   -1.6501    0.0000 C   0  0  0  0  0  0  0  0  0  0  0  0
    7.8508   -2.8803    0.0000 C   0  0  0  0  0  0  0  0  0  0  0  0
    7.1406   -2.4802    0.0000 C   0  0  0  0  0  0  0  0  0  0  0  0
    7.8508   -3.7103    0.0000 C   0  0  0  0  0  0  0  0  0  0  0  0
    7.1406   -4.1304    0.0000 C   0  0  0  0  0  0  0  0  0  0  0  0
    6.4306   -2.9003    0.0000 C   0  0  0  0  0  0  0  0  0  0  0  0
    6.4306   -3.7204    0.0000 N   0  0  0  0  0  0  0  0  0  0  0  0
    7.1406   -4.9505    0.0000 C   0  0  0  0  0  0  0  0  0  0  0  0
    7.8607   -5.3605    0.0000 O   0  0  0  0  0  0  0  0  0  0  0  0
    5.7105   -4.1304    0.0000 C   0  0  0  0  0  0  0  0  0  0  0  0
    5.0105   -3.7204    0.0000 C   0  0  0  0  0  0  0  0  0  0  0  0
    4.2904   -2.4802    0.0000 O   0  0  0  0  0  0  0  0  0  0  0  0
    3.5804   -2.9003    0.0000 C   0  0  0  0  0  0  0  0  0  0  0  0
    4.2904   -4.1304    0.0000 N   0  0  0  0  0  0  0  0  0  0  0  0
    3.5804   -3.7204    0.0000 C   0  0  0  0  0  0  0  0  0  0  0  0
    2.8603   -2.4802    0.0000 O   0  0  0  0  0  0  0  0  0  0  0  0
    2.1502   -2.9003    0.0000 C   0  0  0  0  0  0  0  0  0  0  0  0
    2.8603   -4.1304    0.0000 C   0  0  0  0  0  0  0  0  0  0  0  0
    2.1502   -3.7204    0.0000 C   0  0  0  0  0  0  0  0  0  0  0  0
    1.4302   -2.4802    0.0000 C   0  0  0  0  0  0  0  0  0  0  0  0
    1.4302   -4.1304    0.0000 C   0  0  0  0  0  0  0  0  0  0  0  0
    0.7200   -3.7204    0.0000 C   0  0  0  0  0  0  0  0  0  0  0  0
    1.4302   -4.9505    0.0000 C   0  0  0  0  0  0  0  0  0  0  0  0
    0.7200   -5.3705    0.0000 C   0  0  0  0  0  0  0  0  0  0  0  0
    0.0000   -4.1304    0.0000 C   0  0  0  0  0  0  0  0  0  0  0  0
    0.0000   -4.9505    0.0000 C   0  0  0  0  0  0  0  0  0  0  0  0
    9.2809   -1.2401    0.0000 O   0  0  0  0  0  0  0  0  0  0  0  0
    7.8508   -0.4100    0.0000 O   0  0  0  0  0  0  0  0  0  0  0  0
   10.0010   -1.6501    0.0000 C   0  0  0  0  0  0  0  0  0  0  0  0
    7.1406    0.0000    0.0000 C   0  0  0  0  0  0  0  0  0  0  0  0
    5.7105   -4.9505    0.0000 O   0  0  0  0  0  0  0  0  0  0  0  0
    6.4306   -5.3605    0.0000 O   0  0  0  0  0  0  0  0  0  0  0  0
    5.0105   -2.9003    0.0000 C   0  0  0  0  0  0  0  0  0  0  0  0
    5.0305   -1.1501    0.0000 Cl  0  0  0  0  0  0  0  0  0  0  0  0
  1  2  2  0
  1  3  1  0
  1 30  1  0
  2  4  1  0
  2 31  1  0
  3  5  2  0
  4  6  2  0
  5  7  1  0
  5  6  1  0
  6  9  1  0
  7  8  1  0
  8 11  1  1
  8 10  1  0
  9 10  1  0
 10 13  1  0
 11 12  2  0
 11 35  1  0
 13 14  1  0
 13 34  2  0
 14 17  1  0
 14 36  1  1
 15 16  2  0
 16 19  1  0
 18 16  1  0
 17 18  1  0
 18 21  1  1
 19 20  1  0
 20 23  1  0
 21 22  1  0
 22 24  1  0
 24 26  1  0
 24 25  2  0
 25 28  1  0
 26 27  2  0
 27 29  1  0
 28 29  2  0
 30 32  1  0
 31 33  1  0
M  END
>  <Formula>  (51) 
C27H35ClN2O7

>  <FW>  (51) 
535.0290 (498.5681+36.4609)

>  <DSSTox_CID>  (51) 
24267

>  <NR-Aromatase>  (51) 
0

>  <NR-AR>  (51) 
0

>  <NR-AR-LBD>  (51) 
0

>  <NR-ER>  (51) 
0

>  <NR-ER-LBD>  (51) 
0

>  <NR-PPAR-gamma>  (51) 
0

>  <NR-AhR>  (51) 
1

>  <SR-ATAD5>  (51) 
0

>  <SR-MMP>  (51) 
0

>  <SR-p53>  (51) 
0

$$$$
NCGC00160595-01
     RDKit          2D

 22 25  0  0  0  0  0  0  0  0999 V2000
    0.6570   -0.6669    0.0000 C   0  0  0  0  0  0  0  0  0  0  0  0
    1.3042   -1.1856    0.0000 N   0  0  0  0  0  0  0  0  0  0  0  0
    2.0501   -0.8250    0.0000 C   0  0  0  0  0  0  0  0  0  0  0  0
    2.0501    0.0000    0.0000 O   0  0  0  0  0  0  0  0  0  0  0  0
    2.7911   -1.1856    0.0000 C   0  0  0  0  0  0  0  0  0  0  0  0
    2.9789   -1.9909    0.0000 N   0  0  0  0  0  0  0  0  0  0  0  0
    3.7939   -2.1094    0.0000 C   0  0  0  0  0  0  0  0  0  0  0  0
    4.0953   -2.8801    0.0000 C   0  0  0  0  0  0  0  0  0  0  0  0
    3.5865   -3.5272    0.0000 C   0  0  0  0  0  0  0  0  0  0  0  0
    3.8829   -4.2929    0.0000 C   0  0  0  0  0  0  0  0  0  0  0  0
    3.3642   -4.9401    0.0000 C   0  0  0  0  0  0  0  0  0  0  0  0
    2.5491   -4.8215    0.0000 C   0  0  0  0  0  0  0  0  0  0  0  0
    2.2527   -4.0558    0.0000 C   0  0  0  0  0  0  0  0  0  0  0  0
    2.7566   -3.4086    0.0000 C   0  0  0  0  0  0  0  0  0  0  0  0
    2.4602   -2.6380    0.0000 C   0  0  0  0  0  0  0  0  0  0  0  0
    1.6351   -2.6380    0.0000 C   0  0  0  0  0  0  0  0  0  0  0  0
    1.3338   -3.4185    0.0000 C   0  0  0  0  0  0  0  0  0  0  0  0
    0.5187   -3.5173    0.0000 C   0  0  0  0  0  0  0  0  0  0  0  0
    0.0000   -2.8801    0.0000 C   0  0  0  0  0  0  0  0  0  0  0  0
    0.2964   -2.0995    0.0000 C   0  0  0  0  0  0  0  0  0  0  0  0
    1.1263   -2.0007    0.0000 C   0  0  0  0  0  0  0  0  0  0  0  0
    0.2174   -4.2929    0.0000 Cl  0  0  0  0  0  0  0  0  0  0  0  0
  1  2  1  0
  2  3  1  0
  2 21  1  0
  3  4  2  0
  3  5  1  0
  5  6  1  0
  6  7  1  0
  6 15  1  0
  7  8  1  0
  8  9  1  0
  9 10  2  0
  9 14  1  0
 10 11  1  0
 11 12  2  0
 12 13  1  0
 13 14  2  0
 14 15  1  0
 15 16  1  0
 16 17  2  0
 16 21  1  0
 17 18  1  0
 18 19  2  0
 18 22  1  0
 19 20  1  0
 20 21  2  0
M  END
>  <Formula>  (52) 
C18H17ClN2O

>  <FW>  (52) 
312.7934

>  <DSSTox_CID>  (52) 
26249

>  <NR-AR>  (52) 
0

>  <NR-AR-LBD>  (52) 
0

>  <NR-ER>  (52) 
0

>  <NR-ER-LBD>  (52) 
0

>  <NR-PPAR-gamma>  (52) 
0

>  <NR-AhR>  (52) 
1

>  <SR-ATAD5>  (52) 
0

>  <SR-MMP>  (52) 
0

>  <SR-p53>  (52) 
1

$$$$
NCGC00013260-01
     RDKit          2D

 26 30  0  0  1  0  0  0  0  0999 V2000
    2.7755   -1.2083    0.0000 C   0  0  0  0  0  0  0  0  0  0  0  0
    2.7755   -0.4047    0.0000 C   0  0  0  0  0  0  0  0  0  0  0  0
    2.0631   -1.6243    0.0000 N   0  0  0  0  0  0  0  0  0  0  0  0
    3.4424   -1.6243    0.0000 C   0  0  0  0  0  0  0  0  0  0  0  0
    4.1548   -2.8952    0.0000 C   0  0  0  0  0  0  0  0  0  0  0  0
    4.1434   -1.2083    0.0000 N   0  0  0  0  0  0  0  0  0  0  0  0
    4.1548   -3.7273    0.0000 C   0  0  0  0  0  0  0  0  0  0  0  0
    3.4424   -2.4792    0.0000 C   0  0  0  0  0  0  0  0  0  0  0  0
    1.3906   -0.4047    0.0000 C   0  0  0  0  0  0  0  0  0  0  0  0
    1.3906   -1.2083    0.0000 C   0  0  0  0  0  0  0  0  0  0  0  0
    4.8899   -2.4678    0.0000 C   0  0  0  0  0  0  0  0  0  0  0  0
    3.4424   -4.1434    0.0000 C   0  0  0  0  0  0  0  0  0  0  0  0
    4.8899   -1.6015    0.0000 C   0  0  0  0  0  0  0  0  0  0  0  0
    3.4424    0.0000    0.0000 C   0  0  0  0  0  0  0  0  0  0  0  0
    4.1434   -0.4047    0.0000 C   0  0  0  0  0  0  0  0  0  0  0  0
    4.8899   -4.1434    0.0000 C   0  0  0  0  0  0  0  0  0  0  0  0
    3.4424   -4.9868    0.0000 O   0  0  0  0  0  0  0  0  0  0  0  0
    5.6252   -2.8724    0.0000 C   0  0  0  0  0  0  0  0  0  0  0  0
    5.6252   -3.7159    0.0000 C   0  0  0  0  0  0  0  0  0  0  0  0
    2.7186   -3.7159    0.0000 O   0  0  0  0  0  0  0  0  0  0  0  0
    4.8899   -4.9868    0.0000 O   0  0  0  0  0  0  0  0  0  0  0  0
    0.6896    0.0000    0.0000 C   0  0  0  0  0  0  0  0  0  0  0  0
    0.6896   -1.6243    0.0000 C   0  0  0  0  0  0  0  0  0  0  0  0
    1.9834   -4.1434    0.0000 C   0  0  0  0  0  0  0  0  0  0  0  0
    0.0000   -0.4047    0.0000 C   0  0  0  0  0  0  0  0  0  0  0  0
    0.0000   -1.2083    0.0000 C   0  0  0  0  0  0  0  0  0  0  0  0
  1  2  2  0
  1  3  1  0
  1  4  1  0
  2  9  1  0
  2 14  1  0
  3 10  1  0
  4  6  1  0
  4  8  1  1
  5  8  1  1
  5  7  1  0
  5 11  1  0
  6 13  1  0
  6 15  1  0
  7 12  1  6
  7 16  1  0
  9 22  1  0
  9 10  2  0
 10 23  1  0
 11 18  1  6
 11 13  1  0
 12 17  2  0
 12 20  1  0
 14 15  1  0
 16 21  1  6
 16 19  1  0
 18 19  1  0
 20 24  1  0
 22 25  2  0
 23 26  2  0
 25 26  1  0
M  END
>  <Formula>  (53) 
C21H26N2O3

>  <FW>  (53) 
354.4427

>  <DSSTox_CID>  (53) 
20130

>  <NR-Aromatase>  (53) 
0

>  <NR-AR>  (53) 
0

>  <NR-AR-LBD>  (53) 
0

>  <NR-ER>  (53) 
0

>  <NR-ER-LBD>  (53) 
0

>  <NR-PPAR-gamma>  (53) 
0

>  <NR-AhR>  (53) 
1

>  <SR-ATAD5>  (53) 
0

>  <SR-MMP>  (53) 
0

>  <SR-p53>  (53) 
0

$$$$
NCGC00181097-01
     RDKit          2D

 25 26  0  0  0  0  0  0  0  0999 V2000
    6.4451   -2.0689    0.0000 C   0  0  0  0  0  0  0  0  0  0  0  0
    5.7297   -2.4749    0.0000 O   0  0  0  0  0  0  0  0  0  0  0  0
    5.0143   -2.0689    0.0000 C   0  0  0  0  0  0  0  0  0  0  0  0
    4.2989   -2.4749    0.0000 C   0  0  0  0  0  0  0  0  0  0  0  0
    4.2989   -3.3128    0.0000 C   0  0  0  0  0  0  0  0  0  0  0  0
    5.0143   -3.7188    0.0000 N   0  0  0  0  0  0  0  0  0  0  0  0
    5.7297   -3.3128    0.0000 C   0  0  0  0  0  0  0  0  0  0  0  0
    5.0143   -4.5438    0.0000 C   0  0  0  0  0  0  0  0  0  0  0  0
    3.5835   -2.0689    0.0000 C   0  0  0  0  0  0  0  0  0  0  0  0
    3.5835   -1.2439    0.0000 C   0  0  0  0  0  0  0  0  0  0  0  0
    4.2989   -0.8250    0.0000 C   0  0  0  0  0  0  0  0  0  0  0  0
    5.0143   -1.2439    0.0000 C   0  0  0  0  0  0  0  0  0  0  0  0
    2.8616   -0.8250    0.0000 C   0  0  0  0  0  0  0  0  0  0  0  0
    2.8616    0.0000    0.0000 O   0  0  0  0  0  0  0  0  0  0  0  0
    2.1462   -1.2439    0.0000 C   0  0  0  0  0  0  0  0  0  0  0  0
    2.1462   -2.0689    0.0000 C   0  0  0  0  0  0  0  0  0  0  0  0
    2.8616   -2.4749    0.0000 O   0  0  0  0  0  0  0  0  0  0  0  0
    1.4308   -2.4749    0.0000 C   0  0  0  0  0  0  0  0  0  0  0  0
    1.4308   -3.3128    0.0000 C   0  0  0  0  0  0  0  0  0  0  0  0
    0.7154   -3.7188    0.0000 C   0  0  0  0  0  0  0  0  0  0  0  0
    0.0000   -3.3128    0.0000 C   0  0  0  0  0  0  0  0  0  0  0  0
    0.0000   -2.4749    0.0000 C   0  0  0  0  0  0  0  0  0  0  0  0
    0.7154   -2.0689    0.0000 C   0  0  0  0  0  0  0  0  0  0  0  0
    1.4308   -0.8250    0.0000 C   0  0  0  0  0  0  0  0  0  0  0  0
    3.0937   -3.3386    0.0000 Cl  0  0  0  0  0  0  0  0  0  0  0  0
  1  2  1  0
  2  3  1  0
  3  4  2  0
  3 12  1  0
  4  5  1  0
  4  9  1  0
  5  6  1  0
  6  7  1  0
  6  8  1  0
  9 10  2  0
  9 17  1  0
 10 11  1  0
 10 13  1  0
 11 12  2  0
 13 14  2  0
 13 15  1  0
 15 16  2  0
 15 24  1  0
 16 17  1  0
 16 18  1  0
 18 19  2  0
 18 23  1  0
 19 20  1  0
 20 21  2  0
 21 22  1  0
 22 23  2  0
M  END
>  <Formula>  (54) 
C20H22ClNO3

>  <FW>  (54) 
359.8466 (323.3856+36.4609)

>  <DSSTox_CID>  (54) 
26841

>  <NR-Aromatase>  (54) 
1

>  <NR-AR>  (54) 
0

>  <NR-AR-LBD>  (54) 
0

>  <NR-ER>  (54) 
0

>  <NR-ER-LBD>  (54) 
0

>  <NR-PPAR-gamma>  (54) 
0

>  <NR-AhR>  (54) 
1

>  <SR-ATAD5>  (54) 
0

>  <SR-MMP>  (54) 
0

>  <SR-p53>  (54) 
0

$$$$
NCGC00017332-05
     RDKit          2D

 28 32  0  0  1  0  0  0  0  0999 V2000
    2.8664   -3.7007    0.0000 C   0  0  0  0  0  0  0  0  0  0  0  0
    4.3050   -3.7007    0.0000 C   0  0  0  0  0  0  0  0  0  0  0  0
    2.8664   -2.8772    0.0000 C   0  0  0  0  0  0  0  0  0  0  0  0
    3.5938   -2.4707    0.0000 C   0  0  0  0  0  0  0  0  0  0  0  0
    4.3050   -2.8878    0.0000 O   0  0  0  0  0  0  0  0  0  0  0  0
    2.8664   -1.2300    0.0000 C   0  0  0  0  0  0  0  0  0  0  0  0
    3.5938   -1.6471    0.0000 C   0  0  0  0  0  0  0  0  0  0  0  0
    2.1445   -4.1071    0.0000 C   0  0  0  0  0  0  0  0  0  0  0  0
    4.3050   -1.2193    0.0000 N   0  0  0  0  0  0  0  0  0  0  0  0
    2.8664   -0.4064    0.0000 C   0  0  0  0  0  0  0  0  0  0  0  0
    2.1445   -1.6578    0.0000 C   0  0  0  0  0  0  0  0  0  0  0  0
    1.4386   -1.2300    0.0000 C   0  0  0  0  0  0  0  0  0  0  0  0
    1.4386   -0.4064    0.0000 C   0  0  0  0  0  0  0  0  0  0  0  0
    2.1445   -2.4707    0.0000 C   0  0  0  0  0  0  0  0  0  0  0  0
    2.1445    0.0000    0.0000 C   0  0  0  0  0  0  0  0  0  0  0  0
    5.0323   -4.1285    0.0000 O   0  0  0  0  0  0  0  0  0  0  0  0
    0.6524   -1.4760    0.0000 O   0  0  0  0  0  0  0  0  0  0  0  0
    0.6524   -0.1604    0.0000 O   0  0  0  0  0  0  0  0  0  0  0  0
    1.4386   -3.7007    0.0000 C   0  0  0  0  0  0  0  0  0  0  0  0
    0.1764   -0.7915    0.0000 C   0  0  0  0  0  0  0  0  0  0  0  0
    4.3050   -0.3850    0.0000 C   0  0  0  0  0  0  0  0  0  0  0  0
    3.5938    0.0000    0.0000 C   0  0  0  0  0  0  0  0  0  0  0  0
    1.4386   -2.8878    0.0000 C   0  0  0  0  0  0  0  0  0  0  0  0
    2.1445   -4.9414    0.0000 O   0  0  0  0  0  0  0  0  0  0  0  0
    0.6952   -4.1285    0.0000 O   0  0  0  0  0  0  0  0  0  0  0  0
    5.0323   -1.6151    0.0000 C   0  0  0  0  0  0  0  0  0  0  0  0
    2.8664   -5.3478    0.0000 C   0  0  0  0  0  0  0  0  0  0  0  0
    0.0000   -3.7007    0.0000 C   0  0  0  0  0  0  0  0  0  0  0  0
  1  2  1  0
  1  3  2  0
  1  8  1  0
  2  5  1  0
  2 16  2  0
  3  4  1  0
  3 14  1  0
  4  7  1  0
  4  5  1  6
  6  7  1  0
  6 10  2  0
  6 11  1  0
  7  9  1  6
  8 19  2  0
  8 24  1  0
  9 21  1  0
  9 26  1  0
 10 15  1  0
 10 22  1  0
 11 12  2  0
 12 13  1  0
 12 17  1  0
 13 18  1  0
 13 15  2  0
 14 23  2  0
 17 20  1  0
 18 20  1  0
 19 23  1  0
 19 25  1  0
 21 22  1  0
 24 27  1  0
 25 28  1  0
M  END
>  <Formula>  (55) 
C21H21NO6

>  <FW>  (55) 
383.3945

>  <DSSTox_CID>  (55) 
25611

>  <NR-Aromatase>  (55) 
0

>  <NR-AR>  (55) 
0

>  <NR-AR-LBD>  (55) 
0

>  <NR-ER>  (55) 
0

>  <NR-ER-LBD>  (55) 
0

>  <NR-PPAR-gamma>  (55) 
0

>  <NR-AhR>  (55) 
1

>  <SR-ATAD5>  (55) 
0

>  <SR-MMP>  (55) 
0

>  <SR-p53>  (55) 
0

$$$$
NCGC00095022-01
     RDKit          2D

 43 47  0  0  1  0  0  0  0  0999 V2000
    8.4649   -3.2919    0.0000 C   0  0  0  0  0  0  0  0  0  0  0  0
    8.4649   -2.4589    0.0000 C   0  0  0  0  0  0  0  0  0  0  0  0
    9.1771   -3.6950    0.0000 C   0  0  0  0  0  0  0  0  0  0  0  0
    7.7394   -3.6950    0.0000 C   0  0  0  0  0  0  0  0  0  0  0  0
    9.1771   -2.0424    0.0000 O   0  0  0  0  0  0  0  0  0  0  0  0
    7.7394   -2.0424    0.0000 C   0  0  0  0  0  0  0  0  0  0  0  0
    9.8757   -3.2919    0.0000 C   0  0  0  0  0  0  0  0  0  0  0  0
    9.1771   -4.5146    0.0000 O   0  0  0  0  0  0  0  0  0  0  0  0
    7.0407   -3.2919    0.0000 C   0  0  0  0  0  0  0  0  0  0  0  0
    7.7394   -4.5146    0.0000 O   0  0  0  0  0  0  0  0  0  0  0  0
    9.8757   -2.4589    0.0000 C   0  0  0  0  0  0  0  0  0  0  0  0
    7.0407   -2.4589    0.0000 C   0  0  0  0  0  0  0  0  0  0  0  0
   10.5879   -2.0424    0.0000 C   0  0  0  0  0  0  0  0  0  0  0  0
    6.3285   -2.0424    0.0000 O   0  0  0  0  0  0  0  0  0  0  0  0
   10.5879   -1.2361    0.0000 C   0  0  0  0  0  0  0  0  0  0  0  0
   11.3000   -2.4589    0.0000 C   0  0  0  0  0  0  0  0  0  0  0  0
   11.3000   -0.8196    0.0000 C   0  0  0  0  0  0  0  0  0  0  0  0
   12.0256   -2.0424    0.0000 C   0  0  0  0  0  0  0  0  0  0  0  0
   12.0256   -1.2361    0.0000 C   0  0  0  0  0  0  0  0  0  0  0  0
   11.3000    0.0000    0.0000 O   0  0  0  0  0  0  0  0  0  0  0  0
   12.7243   -0.8196    0.0000 O   0  0  0  0  0  0  0  0  0  0  0  0
   13.4364   -1.2361    0.0000 C   0  0  0  0  0  0  0  0  0  0  0  0
    5.6164   -2.4589    0.0000 C   0  0  0  0  0  0  0  0  0  0  0  0
    5.6164   -3.2919    0.0000 C   0  0  0  0  0  0  0  0  0  0  0  0
    4.9043   -2.0424    0.0000 O   0  0  0  0  0  0  0  0  0  0  0  0
    4.9043   -3.6950    0.0000 C   0  0  0  0  0  0  0  0  0  0  0  0
    4.1921   -2.4589    0.0000 C   0  0  0  0  0  0  0  0  0  0  0  0
    4.1921   -3.2919    0.0000 C   0  0  0  0  0  0  0  0  0  0  0  0
    3.5069   -2.0692    0.0000 C   0  0  0  0  0  0  0  0  0  0  0  0
    3.5069   -3.6816    0.0000 O   0  0  0  0  0  0  0  0  0  0  0  0
    4.9043   -4.4877    0.0000 O   0  0  0  0  0  0  0  0  0  0  0  0
    6.3016   -3.6816    0.0000 O   0  0  0  0  0  0  0  0  0  0  0  0
    2.8216   -2.4589    0.0000 O   0  0  0  0  0  0  0  0  0  0  0  0
    2.1095   -2.0424    0.0000 C   0  0  0  0  0  0  0  0  0  0  0  0
    1.3974   -2.4589    0.0000 C   0  0  0  0  0  0  0  0  0  0  0  0
    2.1095   -1.2361    0.0000 O   0  0  0  0  0  0  0  0  0  0  0  0
    0.6852   -2.0424    0.0000 C   0  0  0  0  0  0  0  0  0  0  0  0
    1.3974   -0.8196    0.0000 C   0  0  0  0  0  0  0  0  0  0  0  0
    0.6852   -1.2361    0.0000 C   0  0  0  0  0  0  0  0  0  0  0  0
    1.3974   -0.0269    0.0000 C   0  0  0  0  0  0  0  0  0  0  0  0
    0.0000   -0.8331    0.0000 O   0  0  0  0  0  0  0  0  0  0  0  0
    0.0000   -2.4454    0.0000 O   0  0  0  0  0  0  0  0  0  0  0  0
    1.3974   -3.2516    0.0000 O   0  0  0  0  0  0  0  0  0  0  0  0
  1  2  2  0
  1  3  1  0
  1  4  1  0
  2  5  1  0
  2  6  1  0
  3  7  1  0
  3  8  2  0
  4  9  2  0
  4 10  1  0
  5 11  1  0
  6 12  2  0
  7 11  2  0
  9 12  1  0
 11 13  1  0
 12 14  1  0
 13 15  2  0
 13 16  1  0
 23 14  1  1
 15 17  1  0
 16 18  2  0
 17 19  2  0
 17 20  1  0
 18 19  1  0
 19 21  1  0
 21 22  1  0
 23 24  1  0
 23 25  1  0
 24 26  1  0
 24 32  1  6
 25 27  1  0
 26 28  1  0
 26 31  1  1
 27 28  1  0
 27 29  1  1
 28 30  1  6
 29 33  1  0
 34 33  1  1
 34 35  1  0
 34 36  1  0
 35 37  1  0
 35 43  1  6
 36 38  1  0
 37 39  1  0
 37 42  1  6
 38 39  1  0
 38 40  1  6
 39 41  1  1
M  END
>  <Formula>  (56) 
C28H32O15

>  <FW>  (56) 
608.5447

>  <DSSTox_CID>  (56) 
25892

>  <NR-Aromatase>  (56) 
0

>  <NR-AR>  (56) 
0

>  <NR-AR-LBD>  (56) 
0

>  <NR-ER>  (56) 
0

>  <NR-ER-LBD>  (56) 
0

>  <NR-PPAR-gamma>  (56) 
0

>  <NR-AhR>  (56) 
1

>  <SR-ATAD5>  (56) 
0

>  <SR-MMP>  (56) 
0

>  <SR-p53>  (56) 
0

$$$$
NCGC00017256-04
     RDKit          2D

 21 24  0  0  1  0  0  0  0  0999 V2000
    3.3719   -1.9618    0.0000 C   0  0  0  0  0  0  0  0  0  0  0  0
    2.0481   -2.1009    0.0000 C   0  0  0  0  0  0  0  0  0  0  0  0
    2.2207   -1.2950    0.0000 O   0  0  0  0  0  0  0  0  0  0  0  0
    2.7675   -2.5181    0.0000 C   0  0  0  0  0  0  0  0  0  0  0  0
    3.0361   -1.2039    0.0000 C   0  0  0  0  0  0  0  0  0  0  0  0
    2.7675   -3.3431    0.0000 C   0  0  0  0  0  0  0  0  0  0  0  0
    4.2113   -2.0385    0.0000 C   0  0  0  0  0  0  0  0  0  0  0  0
    3.9522   -3.4822    0.0000 N   0  0  0  0  0  0  0  0  0  0  0  0
    3.9283   -2.3070    0.0000 C   0  0  0  0  0  0  0  0  0  0  0  0
    3.5206   -0.5372    0.0000 C   0  0  0  0  0  0  0  0  0  0  0  0
    3.3815   -3.6932    0.0000 C   0  0  0  0  0  0  0  0  0  0  0  0
    1.3334   -2.5181    0.0000 C   0  0  0  0  0  0  0  0  0  0  0  0
    4.6861   -1.3622    0.0000 C   0  0  0  0  0  0  0  0  0  0  0  0
    2.0481   -3.7604    0.0000 C   0  0  0  0  0  0  0  0  0  0  0  0
    1.3334   -3.3431    0.0000 C   0  0  0  0  0  0  0  0  0  0  0  0
    4.1681   -2.9450    0.0000 C   0  0  0  0  0  0  0  0  0  0  0  0
    4.3504   -0.6091    0.0000 C   0  0  0  0  0  0  0  0  0  0  0  0
    0.6667   -2.1680    0.0000 O   0  0  0  0  0  0  0  0  0  0  0  0
    4.7964    0.0000    0.0000 O   0  0  0  0  0  0  0  0  0  0  0  0
    4.3887   -3.8611    0.0000 C   0  0  0  0  0  0  0  0  0  0  0  0
    0.0000   -2.5373    0.0000 C   0  0  0  0  0  0  0  0  0  0  0  0
  1  4  1  0
  1  5  1  0
  1  7  1  0
  1  9  1  6
  2  4  2  0
  2 12  1  0
  2  3  1  0
  5  3  1  0
  4  6  1  0
  5 10  1  1
  6 11  1  0
  6 14  2  0
  7 13  2  0
  8 16  1  0
  8 20  1  0
  8 11  1  0
  9 16  1  0
 10 17  1  0
 12 18  1  0
 12 15  2  0
 13 17  1  0
 14 15  1  0
 17 19  1  1
 18 21  1  0
M  END
>  <Formula>  (57) 
C17H21NO3

>  <FW>  (57) 
287.3535

>  <DSSTox_CID>  (57) 
25606

>  <NR-Aromatase>  (57) 
0

>  <NR-AR>  (57) 
0

>  <NR-AR-LBD>  (57) 
0

>  <NR-ER>  (57) 
0

>  <NR-ER-LBD>  (57) 
0

>  <NR-PPAR-gamma>  (57) 
0

>  <NR-AhR>  (57) 
1

>  <SR-ATAD5>  (57) 
0

>  <SR-MMP>  (57) 
0

>  <SR-p53>  (57) 
0

$$$$
NCGC00017260-05
     RDKit          2D

 26 30  0  0  1  0  0  0  0  0999 V2000
    2.7797   -1.2183    0.0000 C   0  0  0  0  0  0  0  0  0  0  0  0
    2.7797   -0.4061    0.0000 C   0  0  0  0  0  0  0  0  0  0  0  0
    2.0762   -1.6357    0.0000 N   0  0  0  0  0  0  0  0  0  0  0  0
    3.4603   -1.6357    0.0000 C   0  0  0  0  0  0  0  0  0  0  0  0
    4.1752   -2.9112    0.0000 C   0  0  0  0  0  0  0  0  0  0  0  0
    4.1695   -1.2183    0.0000 N   0  0  0  0  0  0  0  0  0  0  0  0
    4.1752   -3.7463    0.0000 C   0  0  0  0  0  0  0  0  0  0  0  0
    3.4603   -2.4880    0.0000 C   0  0  0  0  0  0  0  0  0  0  0  0
    1.3841   -0.4061    0.0000 C   0  0  0  0  0  0  0  0  0  0  0  0
    1.3841   -1.2183    0.0000 C   0  0  0  0  0  0  0  0  0  0  0  0
    4.9131   -2.4880    0.0000 C   0  0  0  0  0  0  0  0  0  0  0  0
    3.4603   -4.1581    0.0000 C   0  0  0  0  0  0  0  0  0  0  0  0
    4.9131   -1.6129    0.0000 C   0  0  0  0  0  0  0  0  0  0  0  0
    3.4603    0.0000    0.0000 C   0  0  0  0  0  0  0  0  0  0  0  0
    4.1695   -0.4061    0.0000 C   0  0  0  0  0  0  0  0  0  0  0  0
    4.9131   -4.1581    0.0000 C   0  0  0  0  0  0  0  0  0  0  0  0
    3.4717   -5.0331    0.0000 O   0  0  0  0  0  0  0  0  0  0  0  0
    5.6509   -2.8884    0.0000 C   0  0  0  0  0  0  0  0  0  0  0  0
    5.6509   -3.7348    0.0000 C   0  0  0  0  0  0  0  0  0  0  0  0
    2.7339   -3.7748    0.0000 O   0  0  0  0  0  0  0  0  0  0  0  0
    4.9131   -5.0160    0.0000 O   0  0  0  0  0  0  0  0  0  0  0  0
    0.6978    0.0000    0.0000 C   0  0  0  0  0  0  0  0  0  0  0  0
    0.6978   -1.6357    0.0000 C   0  0  0  0  0  0  0  0  0  0  0  0
    2.0361   -4.2667    0.0000 C   0  0  0  0  0  0  0  0  0  0  0  0
    0.0000   -0.4061    0.0000 C   0  0  0  0  0  0  0  0  0  0  0  0
    0.0000   -1.2183    0.0000 C   0  0  0  0  0  0  0  0  0  0  0  0
  1  2  2  0
  1  3  1  0
  1  4  1  0
  2  9  1  0
  2 14  1  0
  3 10  1  0
  4  6  1  0
  4  8  1  1
  5  8  1  1
  5  7  1  0
  5 11  1  0
  6 13  1  0
  6 15  1  0
  7 12  1  1
  7 16  1  0
  9 22  1  0
  9 10  2  0
 10 23  1  0
 11 18  1  1
 11 13  1  0
 12 17  2  0
 12 20  1  0
 14 15  1  0
 16 21  1  6
 16 19  1  0
 18 19  1  0
 20 24  1  0
 22 25  2  0
 23 26  2  0
 25 26  1  0
M  END
>  <Formula>  (58) 
C21H26N2O3

>  <FW>  (58) 
354.4427

>  <DSSTox_CID>  (58) 
25608

>  <NR-Aromatase>  (58) 
0

>  <NR-AR>  (58) 
0

>  <NR-AR-LBD>  (58) 
0

>  <NR-ER>  (58) 
0

>  <NR-ER-LBD>  (58) 
0

>  <NR-PPAR-gamma>  (58) 
0

>  <NR-AhR>  (58) 
1

>  <SR-ATAD5>  (58) 
0

>  <SR-MMP>  (58) 
0

>  <SR-p53>  (58) 
0

$$$$
NCGC00257298-01
     RDKit          2D

 39 42  0  0  0  0  0  0  0  0999 V2000
    1.6205   -1.1838    0.0000 C   0  0  0  0  0  0  0  0  0  0  0  0
    1.3447   -1.9767    0.0000 C   0  0  0  0  0  0  0  0  0  0  0  0
    2.6778   -1.9883    0.0000 N   0  0  0  0  0  0  0  0  0  0  0  0
    2.4365   -1.1952    0.0000 C   0  0  0  0  0  0  0  0  0  0  0  0
    1.9997   -2.4595    0.0000 C   0  0  0  0  0  0  0  0  0  0  0  0
    1.0688   -0.5746    0.0000 C   0  0  0  0  0  0  0  0  0  0  0  0
    0.5402   -2.1262    0.0000 C   0  0  0  0  0  0  0  0  0  0  0  0
    0.0000   -1.5170    0.0000 C   0  0  0  0  0  0  0  0  0  0  0  0
    0.2643   -0.7355    0.0000 C   0  0  0  0  0  0  0  0  0  0  0  0
    1.9997   -3.2870    0.0000 O   0  0  0  0  0  0  0  0  0  0  0  0
    2.9421   -0.5402    0.0000 O   0  0  0  0  0  0  0  0  0  0  0  0
    3.4593   -2.2640    0.0000 C   0  0  0  0  0  0  0  0  0  0  0  0
    4.0799   -1.7124    0.0000 C   0  0  0  0  0  0  0  0  0  0  0  0
    5.9188   -2.7698    0.0000 O   0  0  0  0  0  0  0  0  0  0  0  0
    5.1028   -2.7698    0.0000 N   0  0  0  0  0  0  0  0  0  0  0  0
    4.8614   -1.9767    0.0000 C   0  0  0  0  0  0  0  0  0  0  0  0
    5.5395   -1.5055    0.0000 N   0  0  0  0  0  0  0  0  0  0  0  0
    6.1831   -1.9883    0.0000 C   0  0  0  0  0  0  0  0  0  0  0  0
    7.6312   -2.2411    0.0000 S   0  0  0  0  0  0  0  0  0  0  0  0
    8.3092   -1.7699    0.0000 C   0  0  0  0  0  0  0  0  0  0  0  0
    6.9761   -1.7584    0.0000 C   0  0  0  0  0  0  0  0  0  0  0  0
    7.2404   -0.9769    0.0000 C   0  0  0  0  0  0  0  0  0  0  0  0
    8.0564   -0.9884    0.0000 C   0  0  0  0  0  0  0  0  0  0  0  0
    9.0907   -2.0457    0.0000 C   0  0  0  0  0  0  0  0  0  0  0  0
    9.7113   -1.5055    0.0000 N   0  0  0  0  0  0  0  0  0  0  0  0
   10.4584   -1.8273    0.0000 C   0  0  0  0  0  0  0  0  0  0  0  0
   11.1824   -1.4366    0.0000 C   0  0  0  0  0  0  0  0  0  0  0  0
   11.3319   -0.6206    0.0000 C   0  0  0  0  0  0  0  0  0  0  0  0
   10.7917    0.0000    0.0000 C   0  0  0  0  0  0  0  0  0  0  0  0
    9.9642   -0.0345    0.0000 C   0  0  0  0  0  0  0  0  0  0  0  0
    9.4930   -0.7125    0.0000 C   0  0  0  0  0  0  0  0  0  0  0  0
    8.5851   -3.9075    0.0000 C   0  0  0  0  0  0  0  0  0  0  0  0
    9.3436   -4.3442    0.0000 C   0  0  0  0  0  0  0  0  0  0  0  0
   10.0446   -3.9075    0.0000 C   0  0  0  0  0  0  0  0  0  0  0  0
   10.7457   -4.3442    0.0000 C   0  0  0  0  0  0  0  0  0  0  0  0
    8.5851   -3.1145    0.0000 O   0  0  0  0  0  0  0  0  0  0  0  0
    7.8840   -4.3442    0.0000 O   0  0  0  0  0  0  0  0  0  0  0  0
   10.7457   -5.1373    0.0000 O   0  0  0  0  0  0  0  0  0  0  0  0
   11.4928   -3.9075    0.0000 O   0  0  0  0  0  0  0  0  0  0  0  0
  1  2  2  0
  1  4  1  0
  1  6  1  0
  2  5  1  0
  2  7  1  0
  3  4  1  0
  3  5  1  0
  3 12  1  0
  4 11  2  0
  5 10  2  0
  6  9  2  0
  7  8  2  0
  8  9  1  0
 12 13  1  0
 13 16  1  0
 14 15  1  0
 14 18  1  0
 15 16  2  0
 16 17  1  0
 17 18  2  0
 18 21  1  0
 19 20  1  0
 19 21  1  0
 20 23  2  0
 20 24  1  0
 21 22  2  0
 22 23  1  0
 24 25  1  0
 25 26  1  0
 25 31  1  0
 26 27  1  0
 27 28  1  0
 28 29  1  0
 29 30  1  0
 30 31  1  0
 32 33  1  0
 32 37  1  0
 32 36  2  0
 33 34  2  0
 34 35  1  0
 35 39  1  0
 35 38  2  0
M  END
>  <Formula>  (59) 
C27H28N4O7S

>  <FW>  (59) 
552.5988 (436.5267+116.0722)

>  <DSSTox_CID>  (59) 
28146

>  <NR-Aromatase>  (59) 
0

>  <NR-AR>  (59) 
0

>  <NR-AR-LBD>  (59) 
0

>  <NR-ER-LBD>  (59) 
0

>  <NR-PPAR-gamma>  (59) 
0

>  <NR-AhR>  (59) 
1

>  <SR-ARE>  (59) 
1

>  <SR-ATAD5>  (59) 
0

>  <SR-HSE>  (59) 
0

>  <SR-p53>  (59) 
0

$$$$
NCGC00254132-01
     RDKit          2D

 41 43  0  0  0  0  0  0  0  0999 V2000
    4.9992   -1.0088    0.0000 C   0  0  0  0  0  0  0  0  0  0  0  0
    4.9992   -1.8383    0.0000 C   0  0  0  0  0  0  0  0  0  0  0  0
    4.2818   -0.5941    0.0000 C   0  0  0  0  0  0  0  0  0  0  0  0
    4.2818   -2.2418    0.0000 C   0  0  0  0  0  0  0  0  0  0  0  0
    3.5644   -1.0088    0.0000 C   0  0  0  0  0  0  0  0  0  0  0  0
    3.5644   -1.8383    0.0000 N   0  0  0  0  0  0  0  0  0  0  0  0
    5.7726   -0.7510    0.0000 C   0  0  0  0  0  0  0  0  0  0  0  0
    6.2658   -1.4123    0.0000 C   0  0  0  0  0  0  0  0  0  0  0  0
    5.7726   -2.0961    0.0000 N   0  0  0  0  0  0  0  0  0  0  0  0
    2.8471   -0.5941    0.0000 O   0  0  0  0  0  0  0  0  0  0  0  0
    7.0840   -1.4123    0.0000 C   0  0  0  0  0  0  0  0  0  0  0  0
    7.4875   -2.1297    0.0000 O   0  0  0  0  0  0  0  0  0  0  0  0
    7.4875   -0.7061    0.0000 N   0  0  0  0  0  0  0  0  0  0  0  0
    8.3170   -0.7061    0.0000 C   0  0  0  0  0  0  0  0  0  0  0  0
    9.9647   -0.7061    0.0000 N   0  0  0  0  0  0  0  0  0  0  0  0
    9.5612    0.0000    0.0000 C   0  0  0  0  0  0  0  0  0  0  0  0
    9.5612   -1.4123    0.0000 C   0  0  0  0  0  0  0  0  0  0  0  0
    8.7317    0.0000    0.0000 C   0  0  0  0  0  0  0  0  0  0  0  0
    8.7317   -1.4123    0.0000 C   0  0  0  0  0  0  0  0  0  0  0  0
    6.0304   -2.8695    0.0000 C   0  0  0  0  0  0  0  0  0  0  0  0
    5.4699   -3.4860    0.0000 C   0  0  0  0  0  0  0  0  0  0  0  0
   10.7941   -0.7061    0.0000 C   0  0  0  0  0  0  0  0  0  0  0  0
   11.2089   -1.4123    0.0000 C   0  0  0  0  0  0  0  0  0  0  0  0
   11.2089    0.0000    0.0000 C   0  0  0  0  0  0  0  0  0  0  0  0
    2.1409   -1.0088    0.0000 C   0  0  0  0  0  0  0  0  0  0  0  0
    1.4236   -0.5941    0.0000 C   0  0  0  0  0  0  0  0  0  0  0  0
    0.7061   -1.0088    0.0000 O   0  0  0  0  0  0  0  0  0  0  0  0
    0.0000   -0.5941    0.0000 C   0  0  0  0  0  0  0  0  0  0  0  0
    5.7390   -4.2706    0.0000 N   0  0  0  0  0  0  0  0  0  0  0  0
    4.6853   -3.3178    0.0000 O   0  0  0  0  0  0  0  0  0  0  0  0
    5.1897   -4.8758    0.0000 C   0  0  0  0  0  0  0  0  0  0  0  0
    4.3827   -4.7077    0.0000 C   0  0  0  0  0  0  0  0  0  0  0  0
    5.4475   -5.6605    0.0000 N   0  0  0  0  0  0  0  0  0  0  0  0
    3.8222   -5.3130    0.0000 C   0  0  0  0  0  0  0  0  0  0  0  0
    4.8871   -6.2770    0.0000 C   0  0  0  0  0  0  0  0  0  0  0  0
    4.0800   -6.0976    0.0000 C   0  0  0  0  0  0  0  0  0  0  0  0
    3.5308   -6.7141    0.0000 Cl  0  0  0  0  0  0  0  0  0  0  0  0
    0.9864   -2.8022    0.0000 C   0  0  0  0  0  0  0  0  0  0  0  0
    1.8046   -2.8022    0.0000 C   0  0  0  0  0  0  0  0  0  0  0  0
    2.2193   -3.5196    0.0000 O   0  0  0  0  0  0  0  0  0  0  0  0
    2.2305   -2.0849    0.0000 O   0  0  0  0  0  0  0  0  0  0  0  0
  1  3  2  0
  1  7  1  0
  1  2  1  0
  2  4  2  0
  2  9  1  0
  3  5  1  0
  4  6  1  0
  5  6  2  0
  5 10  1  0
  7  8  2  0
  8  9  1  0
  8 11  1  0
  9 20  1  0
 10 25  1  0
 11 12  2  0
 11 13  1  0
 13 14  1  0
 14 18  1  0
 14 19  1  0
 15 16  1  0
 15 17  1  0
 15 22  1  0
 16 18  1  0
 17 19  1  0
 20 21  1  0
 21 29  1  0
 21 30  2  0
 22 23  1  0
 22 24  1  0
 25 26  1  0
 26 27  1  0
 27 28  1  0
 29 31  1  0
 31 32  2  0
 31 33  1  0
 32 34  1  0
 33 35  2  0
 34 36  2  0
 35 36  1  0
 36 37  1  0
 38 39  1  0
 39 40  1  0
 39 41  2  0
M  END
>  <Formula>  (60) 
C28H37ClN6O6

>  <FW>  (60) 
589.0830 (529.0310+60.0520)

>  <DSSTox_CID>  (60) 
27385

>  <NR-Aromatase>  (60) 
0

>  <NR-AR>  (60) 
0

>  <NR-AR-LBD>  (60) 
0

>  <NR-ER-LBD>  (60) 
0

>  <NR-PPAR-gamma>  (60) 
0

>  <NR-AhR>  (60) 
1

>  <SR-ATAD5>  (60) 
0

>  <SR-HSE>  (60) 
0

>  <SR-MMP>  (60) 
0

>  <SR-p53>  (60) 
0

$$$$
NCGC00254606-01
     RDKit          2D

 26 27  0  0  0  0  0  0  0  0999 V2000
    6.7980   -2.5761    0.0000 C   0  0  0  0  0  0  0  0  0  0  0  0
    6.7980   -1.7531    0.0000 O   0  0  0  0  0  0  0  0  0  0  0  0
    7.5135   -2.9875    0.0000 O   0  0  0  0  0  0  0  0  0  0  0  0
    6.0824   -2.9875    0.0000 C   0  0  0  0  0  0  0  0  0  0  0  0
    5.3757   -2.5761    0.0000 O   0  0  0  0  0  0  0  0  0  0  0  0
    4.6602   -2.9875    0.0000 C   0  0  0  0  0  0  0  0  0  0  0  0
    4.6602   -3.8104    0.0000 C   0  0  0  0  0  0  0  0  0  0  0  0
    3.9446   -2.5761    0.0000 C   0  0  0  0  0  0  0  0  0  0  0  0
    3.9446   -4.2219    0.0000 C   0  0  0  0  0  0  0  0  0  0  0  0
    3.2290   -2.9875    0.0000 C   0  0  0  0  0  0  0  0  0  0  0  0
    3.2290   -3.8104    0.0000 C   0  0  0  0  0  0  0  0  0  0  0  0
    5.3757   -4.2219    0.0000 Cl  0  0  0  0  0  0  0  0  0  0  0  0
    1.7710   -2.9070    0.0000 N   0  0  0  0  0  0  0  0  0  0  0  0
    1.2165   -2.2899    0.0000 N   0  0  0  0  0  0  0  0  0  0  0  0
    2.4419   -1.7710    0.0000 C   0  0  0  0  0  0  0  0  0  0  0  0
    1.6369   -1.5922    0.0000 C   0  0  0  0  0  0  0  0  0  0  0  0
    2.5224   -2.5761    0.0000 C   0  0  0  0  0  0  0  0  0  0  0  0
    3.0501   -1.2075    0.0000 Cl  0  0  0  0  0  0  0  0  0  0  0  0
    1.3059   -0.8408    0.0000 O   0  0  0  0  0  0  0  0  0  0  0  0
    0.4740   -0.7513    0.0000 C   0  0  0  0  0  0  0  0  0  0  0  0
    0.1521    0.0000    0.0000 F   0  0  0  0  0  0  0  0  0  0  0  0
    0.0000   -1.4222    0.0000 F   0  0  0  0  0  0  0  0  0  0  0  0
    0.4114   -2.3972    0.0000 C   0  0  0  0  0  0  0  0  0  0  0  0
    2.5224   -4.2219    0.0000 F   0  0  0  0  0  0  0  0  0  0  0  0
    8.2560   -2.6298    0.0000 C   0  0  0  0  0  0  0  0  0  0  0  0
    8.9447   -3.0948    0.0000 C   0  0  0  0  0  0  0  0  0  0  0  0
  1  2  2  0
  1  3  1  0
  1  4  1  0
  3 25  1  0
  4  5  1  0
  5  6  1  0
  6  7  2  0
  6  8  1  0
  7  9  1  0
  7 12  1  0
  8 10  2  0
  9 11  2  0
 10 11  1  0
 10 17  1  0
 11 24  1  0
 13 14  1  0
 13 17  2  0
 14 16  1  0
 14 23  1  0
 15 16  2  0
 15 17  1  0
 15 18  1  0
 16 19  1  0
 19 20  1  0
 20 21  1  0
 20 22  1  0
 25 26  1  0
M  END
>  <Formula>  (61) 
C15H13Cl2F3N2O4

>  <FW>  (61) 
413.1759

>  <DSSTox_CID>  (61) 
14871

>  <NR-Aromatase>  (61) 
0

>  <NR-AR>  (61) 
0

>  <NR-ER>  (61) 
0

>  <NR-ER-LBD>  (61) 
0

>  <NR-PPAR-gamma>  (61) 
0

>  <NR-AhR>  (61) 
1

>  <SR-ARE>  (61) 
0

>  <SR-ATAD5>  (61) 
0

>  <SR-HSE>  (61) 
0

>  <SR-p53>  (61) 
0

$$$$
NCGC00254151-01
     RDKit          2D

 20 23  0  0  0  0  0  0  0  0999 V2000
    2.5029   -0.8367    0.0000 C   0  0  0  0  0  0  0  0  0  0  0  0
    2.0178   -1.5046    0.0000 C   0  0  0  0  0  0  0  0  0  0  0  0
    2.1796   -0.0774    0.0000 C   0  0  0  0  0  0  0  0  0  0  0  0
    1.2022   -1.4132    0.0000 C   0  0  0  0  0  0  0  0  0  0  0  0
    1.3499    0.0000    0.0000 C   0  0  0  0  0  0  0  0  0  0  0  0
    0.8648   -0.6538    0.0000 C   0  0  0  0  0  0  0  0  0  0  0  0
    3.2904   -1.0968    0.0000 C   0  0  0  0  0  0  0  0  0  0  0  0
    3.2904   -1.9194    0.0000 C   0  0  0  0  0  0  0  0  0  0  0  0
    2.5029   -2.1655    0.0000 C   0  0  0  0  0  0  0  0  0  0  0  0
    4.0778   -0.8437    0.0000 N   0  0  0  0  0  0  0  0  0  0  0  0
    4.5629   -1.5046    0.0000 C   0  0  0  0  0  0  0  0  0  0  0  0
    4.0778   -2.1655    0.0000 S   0  0  0  0  0  0  0  0  0  0  0  0
    5.3785   -1.4835    0.0000 C   0  0  0  0  0  0  0  0  0  0  0  0
    5.8004   -0.7663    0.0000 C   0  0  0  0  0  0  0  0  0  0  0  0
    5.8004   -2.2006    0.0000 C   0  0  0  0  0  0  0  0  0  0  0  0
    6.6229   -0.7663    0.0000 C   0  0  0  0  0  0  0  0  0  0  0  0
    6.6159   -2.2076    0.0000 C   0  0  0  0  0  0  0  0  0  0  0  0
    7.0308   -1.4835    0.0000 C   0  0  0  0  0  0  0  0  0  0  0  0
    0.0000   -0.4359    0.0000 Cl  0  0  0  0  0  0  0  0  0  0  0  0
    3.2904   -0.2672    0.0000 O   0  0  0  0  0  0  0  0  0  0  0  0
  1  3  2  0
  1  7  1  0
  1  2  1  0
  2  4  2  0
  2  9  1  0
  3  5  1  0
  4  6  1  0
  5  6  2  0
  6 19  1  0
  7 10  1  0
  7  8  1  0
  7 20  1  0
  8  9  1  0
  8 12  1  0
 10 11  2  0
 11 12  1  0
 11 13  1  0
 13 14  2  0
 13 15  1  0
 14 16  1  0
 15 17  2  0
 16 18  2  0
 17 18  1  0
M  END
>  <Formula>  (62) 
C16H12ClNOS

>  <FW>  (62) 
301.7906

>  <DSSTox_CID>  (62) 
27338

>  <NR-AR>  (62) 
0

>  <NR-AR-LBD>  (62) 
0

>  <NR-ER>  (62) 
1

>  <NR-ER-LBD>  (62) 
0

>  <NR-PPAR-gamma>  (62) 
0

>  <NR-AhR>  (62) 
1

>  <SR-ARE>  (62) 
1

>  <SR-ATAD5>  (62) 
0

>  <SR-HSE>  (62) 
0

>  <SR-MMP>  (62) 
1

>  <SR-p53>  (62) 
0

$$$$
NCGC00255988-01
     RDKit          2D

 34 36  0  0  1  0  0  0  0  0999 V2000
    4.2582   -2.4902    0.0000 C   0  0  0  0  0  0  0  0  0  0  0  0
    5.6951   -2.4902    0.0000 C   0  0  0  0  0  0  0  0  0  0  0  0
    2.8588   -2.4902    0.0000 C   0  0  0  0  0  0  0  0  0  0  0  0
    3.5810   -2.8964    0.0000 C   0  0  0  0  0  0  0  0  0  0  0  0
    5.0029   -2.8964    0.0000 C   0  0  0  0  0  0  0  0  0  0  0  0
    4.2582   -1.6777    0.0000 C   0  0  0  0  0  0  0  0  0  0  0  0
    5.6951   -1.6777    0.0000 C   0  0  0  0  0  0  0  0  0  0  0  0
    2.1441   -2.8889    0.0000 C   0  0  0  0  0  0  0  0  0  0  0  0
    1.4294   -2.4902    0.0000 C   0  0  0  0  0  0  0  0  0  0  0  0
    1.4294   -1.6777    0.0000 C   0  0  0  0  0  0  0  0  0  0  0  0
    5.0029   -1.2564    0.0000 C   0  0  0  0  0  0  0  0  0  0  0  0
    2.8588   -1.6777    0.0000 C   0  0  0  0  0  0  0  0  0  0  0  0
    3.5810   -1.2564    0.0000 C   0  0  0  0  0  0  0  0  0  0  0  0
    0.7072   -1.2789    0.0000 C   0  0  0  0  0  0  0  0  0  0  0  0
    2.1441   -1.2564    0.0000 C   0  0  0  0  0  0  0  0  0  0  0  0
    6.4324   -2.8889    0.0000 C   0  0  0  0  0  0  0  0  0  0  0  0
    0.0000   -1.6852    0.0000 C   0  0  0  0  0  0  0  0  0  0  0  0
    0.7072   -2.8889    0.0000 C   0  0  0  0  0  0  0  0  0  0  0  0
    5.0029   -3.7390    0.0000 O   0  0  0  0  0  0  0  0  0  0  0  0
    2.1441   -3.7315    0.0000 O   0  0  0  0  0  0  0  0  0  0  0  0
    5.0029   -0.4364    0.0000 N   0  0  0  0  0  0  0  0  0  0  0  0
    0.7072   -0.4514    0.0000 N   0  0  0  0  0  0  0  0  0  0  0  0
    4.2882   -3.3553    0.0000 O   0  0  0  0  0  0  0  0  0  0  0  0
    6.4324   -3.7315    0.0000 O   0  0  0  0  0  0  0  0  0  0  0  0
    3.5810   -3.7390    0.0000 O   0  0  0  0  0  0  0  0  0  0  0  0
    6.4324   -1.2564    0.0000 O   0  0  0  0  0  0  0  0  0  0  0  0
    0.0000   -2.4601    0.0000 C   0  0  0  0  0  0  0  0  0  0  0  0
    7.1546   -2.4902    0.0000 N   0  0  0  0  0  0  0  0  0  0  0  0
    0.7072   -3.7315    0.0000 O   0  0  0  0  0  0  0  0  0  0  0  0
    4.2582   -0.0076    0.0000 C   0  0  0  0  0  0  0  0  0  0  0  0
    5.6951    0.0000    0.0000 C   0  0  0  0  0  0  0  0  0  0  0  0
    1.4294   -0.0301    0.0000 C   0  0  0  0  0  0  0  0  0  0  0  0
    0.0301   -0.0301    0.0000 C   0  0  0  0  0  0  0  0  0  0  0  0
    7.5232   -0.5943    0.0000 Cl  0  0  0  0  0  0  0  0  0  0  0  0
  1  4  1  0
  1  5  1  0
  1  6  1  0
  1 23  1  6
  2  5  1  0
  2 16  1  0
  2  7  2  0
  3  4  2  0
  3  8  1  0
  3 12  1  0
  4 25  1  0
  5 19  2  0
  6 11  1  0
  6 13  1  1
  7 11  1  0
  7 26  1  0
  8  9  1  0
  8 20  2  0
  9 18  2  0
  9 10  1  0
 10 15  1  0
 10 14  2  0
 11 21  1  6
 12 13  1  1
 12 15  1  0
 14 17  1  0
 14 22  1  0
 16 24  2  0
 16 28  1  0
 17 27  2  0
 18 27  1  0
 18 29  1  0
 21 30  1  0
 21 31  1  0
 22 32  1  0
 22 33  1  0
M  END
>  <Formula>  (63) 
C23H28ClN3O7

>  <FW>  (63) 
493.9373 (457.4764+36.4609)

>  <DSSTox_CID>  (63) 
24545

>  <NR-Aromatase>  (63) 
0

>  <NR-AR>  (63) 
0

>  <NR-AR-LBD>  (63) 
0

>  <NR-ER>  (63) 
0

>  <NR-ER-LBD>  (63) 
0

>  <NR-PPAR-gamma>  (63) 
0

>  <NR-AhR>  (63) 
1

>  <SR-ARE>  (63) 
0

>  <SR-ATAD5>  (63) 
0

>  <SR-HSE>  (63) 
0

>  <SR-p53>  (63) 
0

$$$$
NCGC00256168-01
     RDKit          2D

 22 24  0  0  0  0  0  0  0  0999 V2000
    2.1485   -0.8250    0.0000 C   0  0  0  0  0  0  0  0  0  0  0  0
    2.1485   -2.4751    0.0000 C   0  0  0  0  0  0  0  0  0  0  0  0
    1.4323   -2.0683    0.0000 C   0  0  0  0  0  0  0  0  0  0  0  0
    2.8646   -1.2433    0.0000 C   0  0  0  0  0  0  0  0  0  0  0  0
    2.8646   -2.0683    0.0000 C   0  0  0  0  0  0  0  0  0  0  0  0
    1.4323   -1.2433    0.0000 C   0  0  0  0  0  0  0  0  0  0  0  0
    0.7161   -2.4751    0.0000 C   0  0  0  0  0  0  0  0  0  0  0  0
    0.7161   -0.8250    0.0000 C   0  0  0  0  0  0  0  0  0  0  0  0
    3.5808   -2.4751    0.0000 C   0  0  0  0  0  0  0  0  0  0  0  0
    3.5808   -0.8250    0.0000 C   0  0  0  0  0  0  0  0  0  0  0  0
    0.0000   -1.2433    0.0000 C   0  0  0  0  0  0  0  0  0  0  0  0
    4.2970   -2.0683    0.0000 C   0  0  0  0  0  0  0  0  0  0  0  0
    4.2970   -1.2318    0.0000 C   0  0  0  0  0  0  0  0  0  0  0  0
    0.0000   -2.0683    0.0000 C   0  0  0  0  0  0  0  0  0  0  0  0
    5.0131   -2.4751    0.0000 S   0  0  0  0  0  0  0  0  0  0  0  0
    4.5949   -3.1912    0.0000 O   0  0  0  0  0  0  0  0  0  0  0  0
    5.4199   -1.7589    0.0000 O   0  0  0  0  0  0  0  0  0  0  0  0
    5.7293   -2.8818    0.0000 O   0  0  0  0  0  0  0  0  0  0  0  0
    3.5808   -3.3001    0.0000 N   0  0  0  0  0  0  0  0  0  0  0  0
    3.5808    0.0000    0.0000 Br  0  0  0  0  0  0  0  0  0  0  0  0
    2.1485   -3.3001    0.0000 O   0  0  0  0  0  0  0  0  0  0  0  0
    2.1485    0.0000    0.0000 O   0  0  0  0  0  0  0  0  0  0  0  0
  1  4  1  0
  1  6  1  0
  1 22  2  0
  2  3  1  0
  2  5  1  0
  2 21  2  0
  3  6  2  0
  3  7  1  0
  4  5  2  0
  4 10  1  0
  5  9  1  0
  6  8  1  0
  7 14  2  0
  8 11  2  0
  9 12  2  0
  9 19  1  0
 10 13  2  0
 10 20  1  0
 11 14  1  0
 12 13  1  0
 12 15  1  0
 15 16  2  0
 15 17  1  0
 15 18  2  0
M  END
>  <Formula>  (64) 
C14H8BrNO5S

>  <FW>  (64) 
382.1860

>  <DSSTox_CID>  (64) 
24782

>  <NR-Aromatase>  (64) 
0

>  <NR-AR>  (64) 
0

>  <NR-AR-LBD>  (64) 
0

>  <NR-ER>  (64) 
0

>  <NR-ER-LBD>  (64) 
0

>  <NR-PPAR-gamma>  (64) 
0

>  <NR-AhR>  (64) 
1

>  <SR-ARE>  (64) 
1

>  <SR-ATAD5>  (64) 
0

>  <SR-HSE>  (64) 
0

>  <SR-p53>  (64) 
0

$$$$
NCGC00257705-01
     RDKit          2D

 23 25  0  0  0  0  0  0  0  0999 V2000
    2.8901   -2.9560    0.0000 O   0  0  0  0  0  0  0  0  0  0  0  0
    2.4744   -2.2434    0.0000 C   0  0  0  0  0  0  0  0  0  0  0  0
    2.8901   -1.5242    0.0000 C   0  0  0  0  0  0  0  0  0  0  0  0
    3.7148   -1.5242    0.0000 C   0  0  0  0  0  0  0  0  0  0  0  0
    4.1240   -2.2434    0.0000 O   0  0  0  0  0  0  0  0  0  0  0  0
    4.1240   -0.8116    0.0000 N   0  0  0  0  0  0  0  0  0  0  0  0
    4.9487   -0.8116    0.0000 C   0  0  0  0  0  0  0  0  0  0  0  0
    5.3644   -0.0990    0.0000 N   0  0  0  0  0  0  0  0  0  0  0  0
    6.1826   -0.0990    0.0000 C   0  0  0  0  0  0  0  0  0  0  0  0
    6.5983   -0.8116    0.0000 C   0  0  0  0  0  0  0  0  0  0  0  0
    6.1826   -1.5242    0.0000 C   0  0  0  0  0  0  0  0  0  0  0  0
    5.3644   -1.5242    0.0000 C   0  0  0  0  0  0  0  0  0  0  0  0
    2.4744   -0.8116    0.0000 N   0  0  0  0  0  0  0  0  0  0  0  0
    1.6496   -0.8116    0.0000 S   0  0  0  0  0  0  0  0  0  0  0  0
    0.8776   -0.5278    0.0000 O   0  0  0  0  0  0  0  0  0  0  0  0
    1.7947    0.0000    0.0000 O   0  0  0  0  0  0  0  0  0  0  0  0
    1.2339   -1.5242    0.0000 C   0  0  0  0  0  0  0  0  0  0  0  0
    1.6496   -2.2434    0.0000 C   0  0  0  0  0  0  0  0  0  0  0  0
    1.2339   -2.9560    0.0000 C   0  0  0  0  0  0  0  0  0  0  0  0
    0.4091   -2.9560    0.0000 C   0  0  0  0  0  0  0  0  0  0  0  0
    0.0000   -2.2434    0.0000 C   0  0  0  0  0  0  0  0  0  0  0  0
    0.4091   -1.5242    0.0000 C   0  0  0  0  0  0  0  0  0  0  0  0
    2.8901   -0.0990    0.0000 C   0  0  0  0  0  0  0  0  0  0  0  0
  1  2  1  0
  2  3  2  0
  2 18  1  0
  3  4  1  0
  3 13  1  0
  4  5  2  0
  4  6  1  0
  6  7  1  0
  7  8  2  0
  7 12  1  0
  8  9  1  0
  9 10  2  0
 10 11  1  0
 11 12  2  0
 13 14  1  0
 13 23  1  0
 14 15  2  0
 14 16  2  0
 14 17  1  0
 17 18  2  0
 17 22  1  0
 18 19  1  0
 19 20  2  0
 20 21  1  0
 21 22  2  0
M  END
>  <Formula>  (65) 
C15H13N3O4S

>  <FW>  (65) 
331.3464

>  <DSSTox_CID>  (65) 
1170

>  <NR-AR>  (65) 
0

>  <NR-AR-LBD>  (65) 
0

>  <NR-ER>  (65) 
0

>  <NR-ER-LBD>  (65) 
0

>  <NR-PPAR-gamma>  (65) 
0

>  <NR-AhR>  (65) 
1

>  <SR-ATAD5>  (65) 
0

>  <SR-HSE>  (65) 
0

>  <SR-MMP>  (65) 
1

>  <SR-p53>  (65) 
0

$$$$
NCGC00260125-01
     RDKit          2D

 23 24  0  0  0  0  0  0  0  0999 V2000
    2.1451   -0.8200    0.0000 C   0  0  0  0  0  0  0  0  0  0  0  0
    2.1451   -2.4672    0.0000 C   0  0  0  0  0  0  0  0  0  0  0  0
    1.4276   -2.0645    0.0000 C   0  0  0  0  0  0  0  0  0  0  0  0
    2.8625   -1.2373    0.0000 C   0  0  0  0  0  0  0  0  0  0  0  0
    2.8625   -2.0645    0.0000 C   0  0  0  0  0  0  0  0  0  0  0  0
    1.4276   -1.2373    0.0000 C   0  0  0  0  0  0  0  0  0  0  0  0
    0.7175   -2.4672    0.0000 C   0  0  0  0  0  0  0  0  0  0  0  0
    0.7175   -0.8200    0.0000 C   0  0  0  0  0  0  0  0  0  0  0  0
    3.5727   -2.4672    0.0000 C   0  0  0  0  0  0  0  0  0  0  0  0
    3.5727   -0.8200    0.0000 C   0  0  0  0  0  0  0  0  0  0  0  0
    0.0000   -1.2373    0.0000 C   0  0  0  0  0  0  0  0  0  0  0  0
    4.2901   -2.0645    0.0000 C   0  0  0  0  0  0  0  0  0  0  0  0
    4.2901   -1.2299    0.0000 C   0  0  0  0  0  0  0  0  0  0  0  0
    0.0000   -2.0645    0.0000 C   0  0  0  0  0  0  0  0  0  0  0  0
    5.0076   -2.4672    0.0000 S   0  0  0  0  0  0  0  0  0  0  0  0
    4.5903   -3.1847    0.0000 O   0  0  0  0  0  0  0  0  0  0  0  0
    5.4103   -1.7571    0.0000 O   0  0  0  0  0  0  0  0  0  0  0  0
    5.7251   -2.8845    0.0000 O   0  0  0  0  0  0  0  0  0  0  0  0
    3.5727   -3.2945    0.0000 N   0  0  0  0  0  0  0  0  0  0  0  0
    3.5727    0.0000    0.0000 Br  0  0  0  0  0  0  0  0  0  0  0  0
    2.1451   -3.2945    0.0000 O   0  0  0  0  0  0  0  0  0  0  0  0
    2.1451    0.0000    0.0000 O   0  0  0  0  0  0  0  0  0  0  0  0
    7.3210   -1.6472    0.0000 Na  0  0  0  0  0 15  0  0  0  0  0  0
  1  4  1  0
  1  6  1  0
  1 22  2  0
  2  3  1  0
  2  5  1  0
  2 21  2  0
  3  6  2  0
  3  7  1  0
  4  5  2  0
  4 10  1  0
  5  9  1  0
  6  8  1  0
  7 14  2  0
  8 11  2  0
  9 12  2  0
  9 19  1  0
 10 13  2  0
 10 20  1  0
 11 14  1  0
 12 13  1  0
 12 15  1  0
 15 16  2  0
 15 17  1  0
 15 18  2  0
M  CHG  2  17  -1  23   1
M  END
>  <Formula>  (66) 
C14H7BrNNaO5S

>  <FW>  (66) 
404.1678 (381.1786+22.9892)

>  <DSSTox_CID>  (66) 
9277

>  <NR-Aromatase>  (66) 
0

>  <NR-AR>  (66) 
0

>  <NR-AR-LBD>  (66) 
0

>  <NR-ER>  (66) 
0

>  <NR-ER-LBD>  (66) 
0

>  <NR-PPAR-gamma>  (66) 
0

>  <NR-AhR>  (66) 
1

>  <SR-ARE>  (66) 
1

>  <SR-ATAD5>  (66) 
0

>  <SR-HSE>  (66) 
0

>  <SR-p53>  (66) 
0

$$$$
NCGC00183863-01
     RDKit          2D

 25 27  0  0  0  0  0  0  0  0999 V2000
    2.9289   -3.5224    0.0000 C   0  0  0  0  0  0  0  0  0  0  0  0
    2.9289   -2.1934    0.0000 N   0  0  0  0  0  0  0  0  0  0  0  0
    3.4062   -2.8579    0.0000 C   0  0  0  0  0  0  0  0  0  0  0  0
    2.1547   -2.4386    0.0000 C   0  0  0  0  0  0  0  0  0  0  0  0
    2.1547   -3.2772    0.0000 C   0  0  0  0  0  0  0  0  0  0  0  0
    3.1934   -4.3159    0.0000 C   0  0  0  0  0  0  0  0  0  0  0  0
    3.1934   -1.3999    0.0000 C   0  0  0  0  0  0  0  0  0  0  0  0
    1.4515   -2.0321    0.0000 C   0  0  0  0  0  0  0  0  0  0  0  0
    1.4515   -3.6708    0.0000 C   0  0  0  0  0  0  0  0  0  0  0  0
    2.6321   -0.7806    0.0000 C   0  0  0  0  0  0  0  0  0  0  0  0
    4.0126   -4.4836    0.0000 C   0  0  0  0  0  0  0  0  0  0  0  0
    2.6385   -4.9223    0.0000 O   0  0  0  0  0  0  0  0  0  0  0  0
    1.8386   -0.9548    0.0000 O   0  0  0  0  0  0  0  0  0  0  0  0
    4.5546   -3.8772    0.0000 C   0  0  0  0  0  0  0  0  0  0  0  0
    4.2707   -5.2707    0.0000 C   0  0  0  0  0  0  0  0  0  0  0  0
    0.7225   -2.4386    0.0000 C   0  0  0  0  0  0  0  0  0  0  0  0
    4.2256   -2.8579    0.0000 C   0  0  0  0  0  0  0  0  0  0  0  0
    0.7225   -3.2772    0.0000 C   0  0  0  0  0  0  0  0  0  0  0  0
    5.6255   -4.8255    0.0000 C   0  0  0  0  0  0  0  0  0  0  0  0
    2.8966    0.0000    0.0000 O   0  0  0  0  0  0  0  0  0  0  0  0
    5.3610   -4.0514    0.0000 C   0  0  0  0  0  0  0  0  0  0  0  0
    5.0707   -5.4384    0.0000 C   0  0  0  0  0  0  0  0  0  0  0  0
    6.4512   -4.9933    0.0000 Cl  0  0  0  0  0  0  0  0  0  0  0  0
    0.0000   -2.0257    0.0000 O   0  0  0  0  0  0  0  0  0  0  0  0
    0.0000   -1.1935    0.0000 C   0  0  0  0  0  0  0  0  0  0  0  0
  1  3  2  0
  1  5  1  0
  1  6  1  0
  2  3  1  0
  2  7  1  0
  2  4  1  0
  3 17  1  0
  4  5  2  0
  4  8  1  0
  5  9  1  0
  6 11  1  0
  6 12  2  0
  7 10  1  0
  8 16  2  0
  9 18  2  0
 10 13  2  0
 10 20  1  0
 11 14  2  0
 11 15  1  0
 14 21  1  0
 15 22  2  0
 16 18  1  0
 16 24  1  0
 19 22  1  0
 19 23  1  0
 19 21  2  0
 24 25  1  0
M  END
>  <Formula>  (67) 
C19H16ClNO4

>  <FW>  (67) 
357.7876

>  <DSSTox_CID>  (67) 
28753

>  <NR-Aromatase>  (67) 
0

>  <NR-AR>  (67) 
0

>  <NR-AR-LBD>  (67) 
0

>  <NR-ER>  (67) 
0

>  <NR-ER-LBD>  (67) 
0

>  <NR-PPAR-gamma>  (67) 
0

>  <NR-AhR>  (67) 
1

>  <SR-ARE>  (67) 
0

>  <SR-ATAD5>  (67) 
0

>  <SR-HSE>  (67) 
0

>  <SR-MMP>  (67) 
0

>  <SR-p53>  (67) 
0

$$$$
NCGC00254640-01
     RDKit          2D

 23 26  0  0  0  0  0  0  0  0999 V2000
    2.7236   -1.4552    0.0000 C   0  0  0  0  0  0  0  0  0  0  0  0
    1.4358   -1.0237    0.0000 C   0  0  0  0  0  0  0  0  0  0  0  0
    2.2149   -0.7919    0.0000 C   0  0  0  0  0  0  0  0  0  0  0  0
    1.4358   -1.8929    0.0000 C   0  0  0  0  0  0  0  0  0  0  0  0
    2.2149   -2.1248    0.0000 C   0  0  0  0  0  0  0  0  0  0  0  0
    0.7147   -0.6245    0.0000 C   0  0  0  0  0  0  0  0  0  0  0  0
    0.7147   -2.2921    0.0000 C   0  0  0  0  0  0  0  0  0  0  0  0
    0.0000   -1.8929    0.0000 C   0  0  0  0  0  0  0  0  0  0  0  0
    0.0000   -1.0237    0.0000 C   0  0  0  0  0  0  0  0  0  0  0  0
    2.4918   -2.9167    0.0000 O   0  0  0  0  0  0  0  0  0  0  0  0
    2.4918    0.0000    0.0000 O   0  0  0  0  0  0  0  0  0  0  0  0
    3.9726   -0.7340    0.0000 N   0  0  0  0  0  0  0  0  0  0  0  0
    4.8097   -0.7340    0.0000 C   0  0  0  0  0  0  0  0  0  0  0  0
    5.2089   -1.4358    0.0000 C   0  0  0  0  0  0  0  0  0  0  0  0
    3.5413   -1.4552    0.0000 C   0  0  0  0  0  0  0  0  0  0  0  0
    5.1895   -0.0193    0.0000 C   0  0  0  0  0  0  0  0  0  0  0  0
    6.0266   -1.4552    0.0000 C   0  0  0  0  0  0  0  0  0  0  0  0
    4.8097   -2.1634    0.0000 C   0  0  0  0  0  0  0  0  0  0  0  0
    3.9726   -2.1634    0.0000 C   0  0  0  0  0  0  0  0  0  0  0  0
    6.4387   -0.7340    0.0000 C   0  0  0  0  0  0  0  0  0  0  0  0
    6.0266   -0.0193    0.0000 C   0  0  0  0  0  0  0  0  0  0  0  0
    5.2089   -2.8780    0.0000 Br  0  0  0  0  0  0  0  0  0  0  0  0
    3.5606   -2.8974    0.0000 O   0  0  0  0  0  0  0  0  0  0  0  0
  1  3  1  0
  1  5  1  0
  1 15  1  0
  2  3  1  0
  2  4  2  0
  2  6  1  0
  3 11  2  0
  4  5  1  0
  4  7  1  0
  5 10  2  0
  6  9  2  0
  7  8  2  0
  8  9  1  0
 12 13  2  0
 12 15  1  0
 13 14  1  0
 13 16  1  0
 14 17  1  0
 14 18  2  0
 15 19  2  0
 16 21  2  0
 17 20  2  0
 18 19  1  0
 18 22  1  0
 19 23  1  0
 20 21  1  0
M  END
>  <Formula>  (68) 
C18H10BrNO3

>  <FW>  (68) 
368.1809

>  <DSSTox_CID>  (68) 
24503

>  <NR-Aromatase>  (68) 
0

>  <NR-AR>  (68) 
0

>  <NR-AR-LBD>  (68) 
0

>  <NR-ER>  (68) 
0

>  <NR-ER-LBD>  (68) 
0

>  <NR-PPAR-gamma>  (68) 
0

>  <NR-AhR>  (68) 
1

>  <SR-ARE>  (68) 
1

>  <SR-ATAD5>  (68) 
1

>  <SR-HSE>  (68) 
0

>  <SR-MMP>  (68) 
1

>  <SR-p53>  (68) 
0

$$$$
NCGC00183118-01
     RDKit          2D

 46 50  0  0  1  0  0  0  0  0999 V2000
    2.1359   -2.4888    0.0000 C   0  0  0  0  0  0  0  0  0  0  0  0
    1.4116   -2.0709    0.0000 C   0  0  0  0  0  0  0  0  0  0  0  0
    1.4116   -3.7240    0.0000 C   0  0  0  0  0  0  0  0  0  0  0  0
    0.7151   -2.4888    0.0000 C   0  0  0  0  0  0  0  0  0  0  0  0
    0.7151   -3.3060    0.0000 C   0  0  0  0  0  0  0  0  0  0  0  0
    2.8417   -2.0709    0.0000 C   0  0  0  0  0  0  0  0  0  0  0  0
    3.5475   -2.4888    0.0000 C   0  0  0  0  0  0  0  0  0  0  0  0
    3.5475   -3.3153    0.0000 C   0  0  0  0  0  0  0  0  0  0  0  0
    4.2718   -2.0709    0.0000 O   0  0  0  0  0  0  0  0  0  0  0  0
    4.9776   -2.4888    0.0000 C   0  0  0  0  0  0  0  0  0  0  0  0
    4.2718   -3.7240    0.0000 C   0  0  0  0  0  0  0  0  0  0  0  0
    4.9776   -3.3153    0.0000 C   0  0  0  0  0  0  0  0  0  0  0  0
    6.3984   -1.6716    0.0000 C   0  0  0  0  0  0  0  0  0  0  0  0
    6.3984   -2.4888    0.0000 C   0  0  0  0  0  0  0  0  0  0  0  0
    5.6834   -1.2537    0.0000 C   0  0  0  0  0  0  0  0  0  0  0  0
    5.6834   -2.8881    0.0000 O   0  0  0  0  0  0  0  0  0  0  0  0
    4.9776   -1.6716    0.0000 C   0  0  0  0  0  0  0  0  0  0  0  0
    7.1228   -2.8881    0.0000 C   0  0  0  0  0  0  0  0  0  0  0  0
    2.8417   -4.5411    0.0000 O   0  0  0  0  0  0  0  0  0  0  0  0
    4.2718   -4.5411    0.0000 O   0  0  0  0  0  0  0  0  0  0  0  0
    3.5475   -4.9405    0.0000 C   0  0  0  0  0  0  0  0  0  0  0  0
    2.1452   -4.9405    0.0000 C   0  0  0  0  0  0  0  0  0  0  0  0
    2.1452   -5.7577    0.0000 C   0  0  0  0  0  0  0  0  0  0  0  0
    3.5475   -5.7577    0.0000 C   0  0  0  0  0  0  0  0  0  0  0  0
    2.8417   -6.1849    0.0000 C   0  0  0  0  0  0  0  0  0  0  0  0
    1.4116   -4.5411    0.0000 C   0  0  0  0  0  0  0  0  0  0  0  0
    1.4116   -6.1849    0.0000 C   0  0  0  0  0  0  0  0  0  0  0  0
    1.4116   -6.9928    0.0000 O   0  0  0  0  0  0  0  0  0  0  0  0
    2.8417   -6.9928    0.0000 C   0  0  0  0  0  0  0  0  0  0  0  0
    4.2718   -6.1849    0.0000 C   0  0  0  0  0  0  0  0  0  0  0  0
    4.2718   -6.9928    0.0000 C   0  0  0  0  0  0  0  0  0  0  0  0
    3.5475   -7.4014    0.0000 C   0  0  0  0  0  0  0  0  0  0  0  0
    1.4116   -1.2537    0.0000 C   0  0  0  0  0  0  0  0  0  0  0  0
    0.0000   -3.7240    0.0000 C   0  0  0  0  0  0  0  0  0  0  0  0
    2.8417   -5.3584    0.0000 O   0  0  0  0  0  0  0  0  0  0  0  0
    4.9776   -7.4014    0.0000 C   0  0  0  0  0  0  0  0  0  0  0  0
    3.5475   -8.2279    0.0000 O   0  0  0  0  0  0  0  0  0  0  0  0
    7.1135   -1.2537    0.0000 C   0  0  0  0  0  0  0  0  0  0  0  0
    5.6834   -0.4272    0.0000 N   0  0  0  0  0  0  0  0  0  0  0  0
    6.4077    0.0000    0.0000 O   0  0  0  0  0  0  0  0  0  0  0  0
    7.1321   -0.4272    0.0000 C   0  0  0  0  0  0  0  0  0  0  0  0
    7.1228   -3.7240    0.0000 C   0  0  0  0  0  0  0  0  0  0  0  0
    7.8379   -2.4702    0.0000 C   0  0  0  0  0  0  0  0  0  0  0  0
    8.5715   -2.8881    0.0000 C   0  0  0  0  0  0  0  0  0  0  0  0
    9.2866   -2.4702    0.0000 C   0  0  0  0  0  0  0  0  0  0  0  0
    8.5715   -3.7240    0.0000 C   0  0  0  0  0  0  0  0  0  0  0  0
  1  2  2  0
  1  6  1  0
  2  4  1  0
  2 33  1  0
  3  5  1  0
  3 26  2  0
  4  5  1  0
  5 34  1  6
  7  6  1  1
  7  9  1  0
  7  8  1  0
  8 11  1  0
  9 10  1  0
 10 12  1  1
 10 16  1  0
 10 17  1  0
 11 12  1  1
 11 20  1  0
 13 14  1  0
 13 15  1  0
 13 38  1  6
 14 18  1  0
 14 16  1  1
 15 17  1  0
 15 39  2  0
 18 42  1  0
 18 43  2  0
 19 21  2  0
 20 21  1  0
 21 24  1  0
 22 23  2  0
 22 26  1  0
 23 27  1  0
 23 25  1  0
 24 30  1  6
 24 25  1  0
 25 29  1  0
 25 35  1  6
 27 28  1  0
 29 28  1  1
 29 32  1  0
 30 31  2  0
 31 32  1  0
 31 36  1  0
 32 37  1  1
 39 40  1  0
 40 41  1  0
 43 44  1  0
 44 45  1  0
 44 46  1  0
M  END
>  <Formula>  (69) 
C37H53NO8

>  <FW>  (69) 
639.8186

>  <DSSTox_CID>  (69) 
17577

>  <NR-AR>  (69) 
1

>  <NR-AR-LBD>  (69) 
1

>  <NR-AhR>  (69) 
0

>  <SR-ATAD5>  (69) 
0

>  <SR-MMP>  (69) 
1

$$$$
NCGC00164625-02
     RDKit          2D

 34 34  0  0  1  0  0  0  0  0999 V2000
    0.0000   -2.6276    0.0000 Na  0  0  0  0  0 15  0  0  0  0  0  0
    8.2707   -5.7691    0.0000 C   0  0  0  0  0  0  0  0  0  0  0  0
    8.2707   -4.9449    0.0000 C   0  0  0  0  0  0  0  0  0  0  0  0
    8.9785   -4.5378    0.0000 C   0  0  0  0  0  0  0  0  0  0  0  0
    7.5532   -4.5378    0.0000 C   0  0  0  0  0  0  0  0  0  0  0  0
    6.8454   -4.9449    0.0000 N   0  0  0  0  0  0  0  0  0  0  0  0
    6.1279   -4.5378    0.0000 C   0  0  0  0  0  0  0  0  0  0  0  0
    6.1279   -3.7039    0.0000 C   0  0  0  0  0  0  0  0  0  0  0  0
    5.4104   -3.2966    0.0000 C   0  0  0  0  0  0  0  0  0  0  0  0
    4.7026   -3.7039    0.0000 C   0  0  0  0  0  0  0  0  0  0  0  0
    3.9850   -3.2966    0.0000 C   0  0  0  0  0  0  0  0  0  0  0  0
    3.9850   -2.4822    0.0000 O   0  0  0  0  0  0  0  0  0  0  0  0
    3.2676   -3.7039    0.0000 C   0  0  0  0  0  0  0  0  0  0  0  0
    2.5597   -3.2966    0.0000 C   0  0  0  0  0  0  0  0  0  0  0  0
    2.5597   -2.4822    0.0000 O   0  0  0  0  0  0  0  0  0  0  0  0
    1.8423   -3.7039    0.0000 C   0  0  0  0  0  0  0  0  0  0  0  0
    1.1344   -3.2966    0.0000 C   0  0  0  0  0  0  0  0  0  0  0  0
    0.4169   -3.7039    0.0000 O   0  0  0  0  0  0  0  0  0  0  0  0
    1.1344   -2.4822    0.0000 O   0  0  0  0  0  0  0  0  0  0  0  0
    6.8454   -3.2966    0.0000 C   0  0  0  0  0  0  0  0  0  0  0  0
    7.5532   -3.7039    0.0000 C   0  0  0  0  0  0  0  0  0  0  0  0
    8.2707   -3.2966    0.0000 C   0  0  0  0  0  0  0  0  0  0  0  0
    8.9785   -3.7039    0.0000 O   0  0  0  0  0  0  0  0  0  0  0  0
    9.6960   -3.2966    0.0000 C   0  0  0  0  0  0  0  0  0  0  0  0
    6.8454   -2.4822    0.0000 C   0  0  0  0  0  0  0  0  0  0  0  0
    6.1279   -2.0653    0.0000 C   0  0  0  0  0  0  0  0  0  0  0  0
    6.1279   -1.2314    0.0000 C   0  0  0  0  0  0  0  0  0  0  0  0
    6.8454   -0.8242    0.0000 C   0  0  0  0  0  0  0  0  0  0  0  0
    6.8454    0.0000    0.0000 F   0  0  0  0  0  0  0  0  0  0  0  0
    7.5532   -1.2314    0.0000 C   0  0  0  0  0  0  0  0  0  0  0  0
    7.5532   -2.0653    0.0000 C   0  0  0  0  0  0  0  0  0  0  0  0
    5.4104   -4.9449    0.0000 C   0  0  0  0  0  0  0  0  0  0  0  0
    5.4104   -5.7691    0.0000 C   0  0  0  0  0  0  0  0  0  0  0  0
    4.7026   -4.5378    0.0000 C   0  0  0  0  0  0  0  0  0  0  0  0
  2  3  1  0
  3  4  1  0
  3  5  1  0
  5  6  2  0
  5 21  1  0
  6  7  1  0
  7  8  2  0
  7 32  1  0
  8  9  1  0
  8 20  1  0
  9 10  2  0
 10 11  1  0
 11 12  1  6
 11 13  1  0
 13 14  1  0
 14 15  1  6
 14 16  1  0
 16 17  1  0
 17 18  1  0
 17 19  2  0
 20 21  2  0
 20 25  1  0
 21 22  1  0
 22 23  1  0
 23 24  1  0
 25 26  2  0
 25 31  1  0
 26 27  1  0
 27 28  2  0
 28 29  1  0
 28 30  1  0
 30 31  2  0
 32 33  1  0
 32 34  1  0
M  CHG  2   1   1  18  -1
M  END
>  <Formula>  (70) 
C26H33FNNaO5

>  <FW>  (70) 
481.5321 (22.9892+458.5429)

>  <DSSTox_CID>  (70) 
26488

>  <NR-Aromatase>  (70) 
1

>  <NR-AR>  (70) 
1

>  <NR-ER>  (70) 
1

>  <NR-AhR>  (70) 
0

>  <SR-ATAD5>  (70) 
0

>  <SR-p53>  (70) 
0

$$$$
NCGC00167508-01
     RDKit          2D

 32 36  0  0  1  0  0  0  0  0999 V2000
    5.0988   -2.8292    0.0000 C   0  0  0  0  0  0  0  0  0  0  0  0
    4.3157   -3.0929    0.0000 C   0  0  0  0  0  0  0  0  0  0  0  0
    4.3157   -3.9400    0.0000 C   0  0  0  0  0  0  0  0  0  0  0  0
    2.1578   -4.3316    0.0000 C   0  0  0  0  0  0  0  0  0  0  0  0
    5.5863   -2.1658    0.0000 N   0  0  0  0  0  0  0  0  0  0  0  0
    3.6124   -4.3396    0.0000 C   0  0  0  0  0  0  0  0  0  0  0  0
    5.5624   -3.5165    0.0000 C   0  0  0  0  0  0  0  0  0  0  0  0
    2.8771   -3.9320    0.0000 C   0  0  0  0  0  0  0  0  0  0  0  0
    2.1578   -5.1548    0.0000 C   0  0  0  0  0  0  0  0  0  0  0  0
    3.6124   -2.6773    0.0000 C   0  0  0  0  0  0  0  0  0  0  0  0
    2.8771   -3.0929    0.0000 C   0  0  0  0  0  0  0  0  0  0  0  0
    1.4545   -3.9320    0.0000 C   0  0  0  0  0  0  0  0  0  0  0  0
    6.3616   -3.2607    0.0000 O   0  0  0  0  0  0  0  0  0  0  0  0
    5.0988   -4.1878    0.0000 C   0  0  0  0  0  0  0  0  0  0  0  0
    6.3616   -2.4295    0.0000 C   0  0  0  0  0  0  0  0  0  0  0  0
    5.0988   -1.3586    0.0000 C   0  0  0  0  0  0  0  0  0  0  0  0
    1.4545   -5.5624    0.0000 C   0  0  0  0  0  0  0  0  0  0  0  0
    3.6124   -5.1548    0.0000 C   0  0  0  0  0  0  0  0  0  0  0  0
    0.7433   -4.3396    0.0000 C   0  0  0  0  0  0  0  0  0  0  0  0
    0.7433   -5.1548    0.0000 C   0  0  0  0  0  0  0  0  0  0  0  0
    2.8771   -5.5624    0.0000 C   0  0  0  0  0  0  0  0  0  0  0  0
    7.2487   -0.8231    0.0000 C   0  0  0  0  0  0  0  0  0  0  0  0
    5.7702   -0.9351    0.0000 C   0  0  0  0  0  0  0  0  0  0  0  0
    4.4276   -0.9351    0.0000 O   0  0  0  0  0  0  0  0  0  0  0  0
    6.5055   -1.3347    0.0000 O   0  0  0  0  0  0  0  0  0  0  0  0
    7.2487    0.0000    0.0000 O   0  0  0  0  0  0  0  0  0  0  0  0
    0.0000   -5.5544    0.0000 O   0  0  0  0  0  0  0  0  0  0  0  0
    4.3157   -2.2617    0.0000 C   0  0  0  0  0  0  0  0  0  0  0  0
    2.1578   -2.6773    0.0000 O   0  0  0  0  0  0  0  0  0  0  0  0
    2.1578   -3.4845    0.0000 C   0  0  0  0  0  0  0  0  0  0  0  0
    7.0329   -1.9500    0.0000 C   0  0  0  0  0  0  0  0  0  0  0  0
    7.9919   -1.1908    0.0000 C   0  0  0  0  0  0  0  0  0  0  0  0
  1  2  1  0
  1  5  1  0
  1  7  1  0
  1 16  1  1
  2  3  1  0
  2 10  1  0
  2 28  1  1
  3  6  1  0
  3 14  1  1
  4  8  1  0
  4  9  1  0
  4 12  1  0
  4 30  1  1
  5 15  2  0
  6 18  1  6
  6  8  1  0
  7 13  1  0
  7 14  1  6
  8 11  1  1
  9 17  2  0
  9 21  1  0
 10 11  1  0
 11 29  1  1
 12 19  2  0
 13 15  1  0
 15 31  1  0
 16 23  1  0
 16 24  2  0
 17 20  1  0
 18 21  1  0
 19 20  1  0
 20 27  2  0
 22 25  1  0
 22 26  2  0
 22 32  1  0
 23 25  1  0
M  END
>  <Formula>  (71) 
C25H31NO6

>  <FW>  (71) 
441.5167

>  <DSSTox_CID>  (71) 
378

>  <NR-AR>  (71) 
1

>  <NR-AR-LBD>  (71) 
0

>  <NR-ER>  (71) 
1

>  <NR-PPAR-gamma>  (71) 
0

>  <SR-p53>  (71) 
0

$$$$
NCGC00016436-01
     RDKit          2D

 35 39  0  0  1  0  0  0  0  0999 V2000
    5.0792   -2.1594    0.0000 C   0  0  0  0  0  0  0  0  0  0  0  0
    2.1594   -3.6587    0.0000 C   0  0  0  0  0  0  0  0  0  0  0  0
    4.3116   -2.4176    0.0000 C   0  0  0  0  0  0  0  0  0  0  0  0
    2.8696   -3.2426    0.0000 C   0  0  0  0  0  0  0  0  0  0  0  0
    2.1594   -4.4837    0.0000 C   0  0  0  0  0  0  0  0  0  0  0  0
    4.3116   -3.2426    0.0000 C   0  0  0  0  0  0  0  0  0  0  0  0
    3.5942   -3.6587    0.0000 C   0  0  0  0  0  0  0  0  0  0  0  0
    5.5670   -2.8194    0.0000 C   0  0  0  0  0  0  0  0  0  0  0  0
    5.5742   -1.4994    0.0000 O   0  0  0  0  0  0  0  0  0  0  0  0
    2.8696   -2.4176    0.0000 C   0  0  0  0  0  0  0  0  0  0  0  0
    1.4419   -3.2426    0.0000 C   0  0  0  0  0  0  0  0  0  0  0  0
    3.5798   -2.0087    0.0000 C   0  0  0  0  0  0  0  0  0  0  0  0
    6.3490   -1.7505    0.0000 C   0  0  0  0  0  0  0  0  0  0  0  0
    6.3490   -2.5755    0.0000 O   0  0  0  0  0  0  0  0  0  0  0  0
    5.0792   -3.5009    0.0000 C   0  0  0  0  0  0  0  0  0  0  0  0
    5.0792   -1.2196    0.0000 C   0  0  0  0  0  0  0  0  0  0  0  0
    3.5942   -4.4837    0.0000 C   0  0  0  0  0  0  0  0  0  0  0  0
    2.8696   -4.8711    0.0000 C   0  0  0  0  0  0  0  0  0  0  0  0
    1.4419   -4.8711    0.0000 C   0  0  0  0  0  0  0  0  0  0  0  0
    0.7246   -3.6587    0.0000 C   0  0  0  0  0  0  0  0  0  0  0  0
    0.7246   -4.4837    0.0000 C   0  0  0  0  0  0  0  0  0  0  0  0
    2.9485   -0.8537    0.0000 C   0  0  0  0  0  0  0  0  0  0  0  0
    2.8696   -4.0605    0.0000 F   0  0  0  0  0  0  0  0  0  0  0  0
    4.3618   -0.8179    0.0000 C   0  0  0  0  0  0  0  0  0  0  0  0
    5.7823   -0.8179    0.0000 O   0  0  0  0  0  0  0  0  0  0  0  0
    3.6587   -1.2555    0.0000 O   0  0  0  0  0  0  0  0  0  0  0  0
    2.2383   -1.2626    0.0000 O   0  0  0  0  0  0  0  0  0  0  0  0
    0.0000   -4.8711    0.0000 O   0  0  0  0  0  0  0  0  0  0  0  0
    2.1594   -2.8194    0.0000 C   0  0  0  0  0  0  0  0  0  0  0  0
    4.3116   -1.5926    0.0000 C   0  0  0  0  0  0  0  0  0  0  0  0
    2.1594   -1.9872    0.0000 O   0  0  0  0  0  0  0  0  0  0  0  0
    2.8696   -5.7034    0.0000 F   0  0  0  0  0  0  0  0  0  0  0  0
    6.5571   -0.9757    0.0000 C   0  0  0  0  0  0  0  0  0  0  0  0
    7.1740   -1.7505    0.0000 C   0  0  0  0  0  0  0  0  0  0  0  0
    2.9485    0.0000    0.0000 C   0  0  0  0  0  0  0  0  0  0  0  0
  1  3  1  0
  1  8  1  0
  1  9  1  0
  1 16  1  1
  2  4  1  0
  2  5  1  0
  2 11  1  0
  2 29  1  1
  3  6  1  0
  3 12  1  0
  3 30  1  1
  4 10  1  0
  4 23  1  6
  4  7  1  0
  5 19  2  0
  5 18  1  0
  6  7  1  0
  6 15  1  1
  7 17  1  6
  8 14  1  0
  8 15  1  6
  9 13  1  0
 10 12  1  0
 10 31  1  1
 11 20  2  0
 13 33  1  0
 13 34  1  0
 13 14  1  0
 16 24  1  0
 16 25  2  0
 17 18  1  0
 18 32  1  6
 19 21  1  0
 20 21  1  0
 21 28  2  0
 22 26  1  0
 22 27  2  0
 22 35  1  0
 24 26  1  0
M  END
>  <Formula>  (72) 
C26H32F2O7

>  <FW>  (72) 
494.5249

>  <DSSTox_CID>  (72) 
25307

>  <NR-AR>  (72) 
1

>  <NR-AR-LBD>  (72) 
0

>  <NR-PPAR-gamma>  (72) 
0

>  <SR-MMP>  (72) 
0

>  <SR-p53>  (72) 
0

$$$$
NCGC00095071-01
     RDKit          2D

 36 41  0  0  1  0  0  0  0  0999 V2000
    5.0724   -2.4293    0.0000 C   0  0  0  0  0  0  0  0  0  0  0  0
    4.2856   -2.6660    0.0000 C   0  0  0  0  0  0  0  0  0  0  0  0
    2.8724   -3.5140    0.0000 C   0  0  0  0  0  0  0  0  0  0  0  0
    2.1466   -3.9266    0.0000 C   0  0  0  0  0  0  0  0  0  0  0  0
    4.2856   -3.5140    0.0000 C   0  0  0  0  0  0  0  0  0  0  0  0
    3.5828   -3.9266    0.0000 C   0  0  0  0  0  0  0  0  0  0  0  0
    5.5537   -3.0710    0.0000 C   0  0  0  0  0  0  0  0  0  0  0  0
    2.1466   -4.7516    0.0000 C   0  0  0  0  0  0  0  0  0  0  0  0
    5.5308   -1.7417    0.0000 O   0  0  0  0  0  0  0  0  0  0  0  0
    2.8724   -2.6660    0.0000 C   0  0  0  0  0  0  0  0  0  0  0  0
    3.5828   -2.2765    0.0000 C   0  0  0  0  0  0  0  0  0  0  0  0
    6.3558   -1.9862    0.0000 C   0  0  0  0  0  0  0  0  0  0  0  0
    6.3558   -2.7959    0.0000 O   0  0  0  0  0  0  0  0  0  0  0  0
    1.4514   -3.5140    0.0000 C   0  0  0  0  0  0  0  0  0  0  0  0
    5.0724   -3.7508    0.0000 C   0  0  0  0  0  0  0  0  0  0  0  0
    5.0724   -1.2605    0.0000 C   0  0  0  0  0  0  0  0  0  0  0  0
    1.4514   -5.1641    0.0000 C   0  0  0  0  0  0  0  0  0  0  0  0
    3.5828   -4.7516    0.0000 C   0  0  0  0  0  0  0  0  0  0  0  0
    0.7257   -3.9266    0.0000 C   0  0  0  0  0  0  0  0  0  0  0  0
    0.7257   -4.7516    0.0000 C   0  0  0  0  0  0  0  0  0  0  0  0
    2.8724   -5.1641    0.0000 C   0  0  0  0  0  0  0  0  0  0  0  0
    2.8724   -0.8021    0.0000 C   0  0  0  0  0  0  0  0  0  0  0  0
    2.8724   -4.3238    0.0000 F   0  0  0  0  0  0  0  0  0  0  0  0
    4.3696   -0.8251    0.0000 C   0  0  0  0  0  0  0  0  0  0  0  0
    5.7065   -0.7257    0.0000 O   0  0  0  0  0  0  0  0  0  0  0  0
    3.6592   -1.2452    0.0000 O   0  0  0  0  0  0  0  0  0  0  0  0
    2.8724    0.0000    0.0000 O   0  0  0  0  0  0  0  0  0  0  0  0
    0.0000   -5.1717    0.0000 O   0  0  0  0  0  0  0  0  0  0  0  0
    4.2856   -1.9174    0.0000 C   0  0  0  0  0  0  0  0  0  0  0  0
    2.1466   -2.2535    0.0000 O   0  0  0  0  0  0  0  0  0  0  0  0
    2.1466   -2.9869    0.0000 C   0  0  0  0  0  0  0  0  0  0  0  0
    6.3558   -1.1612    0.0000 C   0  0  0  0  0  0  0  0  0  0  0  0
    7.1732   -2.2383    0.0000 C   0  0  0  0  0  0  0  0  0  0  0  0
    2.1466   -1.2299    0.0000 C   0  0  0  0  0  0  0  0  0  0  0  0
    7.6392   -1.5202    0.0000 C   0  0  0  0  0  0  0  0  0  0  0  0
    7.1045   -0.9014    0.0000 C   0  0  0  0  0  0  0  0  0  0  0  0
  1  2  1  0
  1  7  1  0
  1  9  1  0
  1 16  1  1
  2  5  1  0
  2 11  1  0
  2 29  1  1
  3 10  1  0
  3  4  1  0
  3 23  1  6
  3  6  1  0
  4  8  1  0
  4 14  1  0
  4 31  1  1
  5  6  1  0
  5 15  1  1
  6 18  1  6
  7 13  1  0
  7 15  1  6
  8 17  2  0
  8 21  1  0
  9 12  1  0
 10 11  1  0
 10 30  1  1
 12 32  1  0
 12 33  1  0
 12 13  1  0
 14 19  2  0
 16 24  1  0
 16 25  2  0
 17 20  1  0
 18 21  1  0
 19 20  1  0
 20 28  2  0
 22 26  1  0
 22 27  2  0
 22 34  1  0
 24 26  1  0
 32 36  1  0
 33 35  1  0
 35 36  1  0
M  END
>  <Formula>  (73) 
C28H35FO7

>  <FW>  (73) 
502.5717

>  <DSSTox_CID>  (73) 
25905

>  <NR-AR>  (73) 
1

>  <NR-AR-LBD>  (73) 
0

>  <NR-ER-LBD>  (73) 
0

>  <NR-PPAR-gamma>  (73) 
0

>  <SR-p53>  (73) 
0

$$$$
NCGC00181300-01
     RDKit          2D

 47 49  0  0  1  0  0  0  0  0999 V2000
    3.5802   -6.6291    0.0000 C   0  0  0  0  0  0  0  0  0  0  0  0
    3.5802   -7.4741    0.0000 C   0  0  0  0  0  0  0  0  0  0  0  0
    2.8746   -6.2197    0.0000 N   0  0  0  0  0  0  0  0  0  0  0  0
    4.3120   -6.2197    0.0000 N   0  0  0  0  0  0  0  0  0  0  0  0
    2.8746   -7.8661    0.0000 N   0  0  0  0  0  0  0  0  0  0  0  0
    5.0176   -7.4741    0.0000 N   0  0  0  0  0  0  0  0  0  0  0  0
    4.3120   -7.8661    0.0000 C   0  0  0  0  0  0  0  0  0  0  0  0
    5.0176   -6.6291    0.0000 C   0  0  0  0  0  0  0  0  0  0  0  0
    2.1516   -6.6291    0.0000 C   0  0  0  0  0  0  0  0  0  0  0  0
    2.1516   -7.4741    0.0000 C   0  0  0  0  0  0  0  0  0  0  0  0
    1.4373   -6.2197    0.0000 C   0  0  0  0  0  0  0  0  0  0  0  0
    1.4373   -7.8661    0.0000 C   0  0  0  0  0  0  0  0  0  0  0  0
    0.7317   -6.6291    0.0000 C   0  0  0  0  0  0  0  0  0  0  0  0
    0.7317   -7.4741    0.0000 C   0  0  0  0  0  0  0  0  0  0  0  0
    4.3120   -8.7111    0.0000 O   0  0  0  0  0  0  0  0  0  0  0  0
    5.7493   -6.2197    0.0000 O   0  0  0  0  0  0  0  0  0  0  0  0
    0.0000   -6.2197    0.0000 C   0  0  0  0  0  0  0  0  0  0  0  0
    0.0000   -7.8835    0.0000 C   0  0  0  0  0  0  0  0  0  0  0  0
    4.2771   -2.9008    0.0000 C   0  0  0  0  0  0  0  0  0  0  0  0
    4.2946   -3.7284    0.0000 C   0  0  0  0  0  0  0  0  0  0  0  0
    3.5715   -4.1551    0.0000 C   0  0  0  0  0  0  0  0  0  0  0  0
    3.5802   -4.9653    0.0000 C   0  0  0  0  0  0  0  0  0  0  0  0
    2.8746   -5.3921    0.0000 C   0  0  0  0  0  0  0  0  0  0  0  0
    4.9653   -2.4826    0.0000 O   0  0  0  0  0  0  0  0  0  0  0  0
    5.0089   -4.1377    0.0000 O   0  0  0  0  0  0  0  0  0  0  0  0
    2.8660   -3.7457    0.0000 O   0  0  0  0  0  0  0  0  0  0  0  0
    4.3033   -5.3747    0.0000 O   0  0  0  0  0  0  0  0  0  0  0  0
    0.6708   -5.0960    0.0000 C   0  0  0  0  0  0  0  0  0  0  0  0
    1.4373   -5.4009    0.0000 C   0  0  0  0  0  0  0  0  0  0  0  0
    2.1516   -4.9827    0.0000 C   0  0  0  0  0  0  0  0  0  0  0  0
    2.1429   -4.1639    0.0000 C   0  0  0  0  0  0  0  0  0  0  0  0
    1.4286   -3.7545    0.0000 O   0  0  0  0  0  0  0  0  0  0  0  0
    7.1605   -5.3573    0.0000 C   0  0  0  0  0  0  0  0  0  0  0  0
    6.4462   -4.9479    0.0000 C   0  0  0  0  0  0  0  0  0  0  0  0
    5.7231   -5.3660    0.0000 C   0  0  0  0  0  0  0  0  0  0  0  0
    5.0089   -4.9566    0.0000 C   0  0  0  0  0  0  0  0  0  0  0  0
    5.0001   -4.5559    0.0000 O   0  0  0  0  0  0  0  0  0  0  0  0
    7.8661   -4.1203    0.0000 C   0  0  0  0  0  0  0  0  0  0  0  0
    7.1518   -3.7109    0.0000 C   0  0  0  0  0  0  0  0  0  0  0  0
    6.4375   -4.1290    0.0000 C   0  0  0  0  0  0  0  0  0  0  0  0
    5.7145   -3.7196    0.0000 C   0  0  0  0  0  0  0  0  0  0  0  0
    5.7145   -2.8921    0.0000 O   0  0  0  0  0  0  0  0  0  0  0  0
    6.4026    0.0000    0.0000 C   0  0  0  0  0  0  0  0  0  0  0  0
    5.6970   -0.4181    0.0000 C   0  0  0  0  0  0  0  0  0  0  0  0
    5.7057   -1.2457    0.0000 C   0  0  0  0  0  0  0  0  0  0  0  0
    4.9915   -1.6551    0.0000 C   0  0  0  0  0  0  0  0  0  0  0  0
    4.2684   -1.2457    0.0000 O   0  0  0  0  0  0  0  0  0  0  0  0
  1  2  1  0
  1  3  1  0
  1  4  2  0
  2  5  2  0
  2  7  1  0
  3  9  1  0
  3 23  1  0
  4  8  1  0
  5 10  1  0
  6  8  1  0
  6  7  1  0
  7 15  2  0
  8 16  2  0
  9 10  2  0
  9 11  1  0
 10 12  1  0
 11 13  2  0
 12 14  2  0
 13 14  1  0
 13 17  1  0
 14 18  1  0
 20 19  1  1
 19 24  1  0
 20 21  1  0
 20 25  1  0
 21 22  1  0
 21 26  1  6
 22 23  1  1
 22 27  1  0
 24 46  1  0
 25 41  1  0
 26 31  1  0
 27 36  1  0
 28 29  1  0
 29 30  1  0
 30 31  1  0
 31 32  2  0
 33 34  1  0
 34 35  1  0
 35 36  1  0
 36 37  2  0
 38 39  1  0
 39 40  1  0
 40 41  1  0
 41 42  2  0
 43 44  1  0
 44 45  1  0
 45 46  1  0
 46 47  2  0
M  END
>  <Formula>  (74) 
C33H44N4O10

>  <FW>  (74) 
656.7233

>  <DSSTox_CID>  (74) 
26892

>  <NR-Aromatase>  (74) 
0

>  <NR-AR>  (74) 
1

>  <NR-ER-LBD>  (74) 
0

>  <NR-PPAR-gamma>  (74) 
0

>  <NR-AhR>  (74) 
0

>  <SR-HSE>  (74) 
0

>  <SR-MMP>  (74) 
1

$$$$
NCGC00016621-01
     RDKit          2D

 31 35  0  0  1  0  0  0  0  0999 V2000
    5.1061   -1.7116    0.0000 C   0  0  0  0  0  0  0  0  0  0  0  0
    4.3261   -1.9572    0.0000 C   0  0  0  0  0  0  0  0  0  0  0  0
    2.8961   -2.7805    0.0000 C   0  0  0  0  0  0  0  0  0  0  0  0
    4.3261   -2.7805    0.0000 C   0  0  0  0  0  0  0  0  0  0  0  0
    2.1811   -3.1922    0.0000 C   0  0  0  0  0  0  0  0  0  0  0  0
    3.6328   -3.1922    0.0000 C   0  0  0  0  0  0  0  0  0  0  0  0
    5.5972   -2.3545    0.0000 C   0  0  0  0  0  0  0  0  0  0  0  0
    2.1811   -4.0156    0.0000 C   0  0  0  0  0  0  0  0  0  0  0  0
    5.5683   -1.0039    0.0000 O   0  0  0  0  0  0  0  0  0  0  0  0
    2.8961   -1.9572    0.0000 C   0  0  0  0  0  0  0  0  0  0  0  0
    3.6328   -1.5528    0.0000 C   0  0  0  0  0  0  0  0  0  0  0  0
    6.4133   -1.2639    0.0000 C   0  0  0  0  0  0  0  0  0  0  0  0
    6.4133   -2.0583    0.0000 O   0  0  0  0  0  0  0  0  0  0  0  0
    5.1061   -3.0117    0.0000 C   0  0  0  0  0  0  0  0  0  0  0  0
    5.1061   -0.5056    0.0000 C   0  0  0  0  0  0  0  0  0  0  0  0
    1.4589   -4.4272    0.0000 C   0  0  0  0  0  0  0  0  0  0  0  0
    3.6328   -4.0156    0.0000 C   0  0  0  0  0  0  0  0  0  0  0  0
    1.4589   -2.7805    0.0000 C   0  0  0  0  0  0  0  0  0  0  0  0
    2.8961   -4.4272    0.0000 C   0  0  0  0  0  0  0  0  0  0  0  0
    0.7439   -4.0156    0.0000 C   0  0  0  0  0  0  0  0  0  0  0  0
    2.8817   -3.4811    0.0000 F   0  0  0  0  0  0  0  0  0  0  0  0
    5.7633    0.0000    0.0000 O   0  0  0  0  0  0  0  0  0  0  0  0
    0.0000   -4.4345    0.0000 O   0  0  0  0  0  0  0  0  0  0  0  0
    4.3261   -1.1700    0.0000 C   0  0  0  0  0  0  0  0  0  0  0  0
    0.7439   -3.1922    0.0000 C   0  0  0  0  0  0  0  0  0  0  0  0
    2.1811   -1.5167    0.0000 O   0  0  0  0  0  0  0  0  0  0  0  0
    2.1811   -2.2533    0.0000 C   0  0  0  0  0  0  0  0  0  0  0  0
    4.3984   -0.0866    0.0000 C   0  0  0  0  0  0  0  0  0  0  0  0
    3.6906   -0.5056    0.0000 Cl  0  0  0  0  0  0  0  0  0  0  0  0
    6.4133   -0.4261    0.0000 C   0  0  0  0  0  0  0  0  0  0  0  0
    7.2223   -1.5095    0.0000 C   0  0  0  0  0  0  0  0  0  0  0  0
  1  2  1  0
  1  7  1  0
  1  9  1  0
  1 15  1  1
  2  4  1  0
  2 11  1  0
  2 24  1  1
  3 10  1  0
  3  5  1  0
  3 21  1  6
  3  6  1  0
  4  6  1  0
  4 14  1  1
  5  8  1  0
  5 18  1  0
  5 27  1  1
  6 17  1  6
  7 13  1  0
  7 14  1  6
  8 16  2  0
  8 19  1  0
  9 12  1  0
 10 11  1  0
 10 26  1  1
 12 30  1  0
 12 31  1  0
 12 13  1  0
 15 22  2  0
 15 28  1  0
 16 20  1  0
 17 19  1  0
 18 25  1  0
 20 25  1  0
 20 23  2  0
 28 29  1  0
M  END
>  <Formula>  (75) 
C24H32ClFO5

>  <FW>  (75) 
454.9593

>  <DSSTox_CID>  (75) 
25375

>  <NR-AR>  (75) 
1

>  <NR-AR-LBD>  (75) 
0

>  <NR-ER>  (75) 
0

>  <NR-PPAR-gamma>  (75) 
0

>  <SR-ATAD5>  (75) 
0

>  <SR-p53>  (75) 
0

$$$$
NCGC00159508-02
     RDKit          2D

 35 36  0  0  0  0  0  0  0  0999 V2000
    0.0000   -3.0186    0.0000 Na  0  0  0  0  0 15  0  0  0  0  0  0
    0.0000   -3.8436    0.0000 Na  0  0  0  0  0 15  0  0  0  0  0  0
    1.9578   -2.8287    0.0000 O   0  0  0  0  0  0  0  0  0  0  0  0
    2.2394   -2.0495    0.0000 C   0  0  0  0  0  0  0  0  0  0  0  0
    1.7090   -1.4209    0.0000 O   0  0  0  0  0  0  0  0  0  0  0  0
    3.0513   -1.9120    0.0000 C   0  0  0  0  0  0  0  0  0  0  0  0
    3.1954   -1.0935    0.0000 C   0  0  0  0  0  0  0  0  0  0  0  0
    2.5668   -0.5631    0.0000 Cl  0  0  0  0  0  0  0  0  0  0  0  0
    3.9746   -0.8119    0.0000 C   0  0  0  0  0  0  0  0  0  0  0  0
    4.1187    0.0000    0.0000 Cl  0  0  0  0  0  0  0  0  0  0  0  0
    4.6032   -1.3423    0.0000 C   0  0  0  0  0  0  0  0  0  0  0  0
    5.3824   -1.0608    0.0000 Cl  0  0  0  0  0  0  0  0  0  0  0  0
    4.4657   -2.1543    0.0000 C   0  0  0  0  0  0  0  0  0  0  0  0
    5.0943   -2.6912    0.0000 Cl  0  0  0  0  0  0  0  0  0  0  0  0
    3.6865   -2.4424    0.0000 C   0  0  0  0  0  0  0  0  0  0  0  0
    3.6865   -3.5163    0.0000 C   0  0  0  0  0  0  0  0  0  0  0  0
    4.4002   -3.9288    0.0000 C   0  0  0  0  0  0  0  0  0  0  0  0
    5.1205   -3.5163    0.0000 C   0  0  0  0  0  0  0  0  0  0  0  0
    5.8342   -3.9288    0.0000 C   0  0  0  0  0  0  0  0  0  0  0  0
    6.5480   -3.5163    0.0000 I   0  0  0  0  0  0  0  0  0  0  0  0
    5.8342   -4.7538    0.0000 C   0  0  0  0  0  0  0  0  0  0  0  0
    6.5480   -5.1663    0.0000 O   0  0  0  0  0  0  0  0  0  0  0  0
    5.1205   -5.1663    0.0000 C   0  0  0  0  0  0  0  0  0  0  0  0
    5.1205   -5.9914    0.0000 I   0  0  0  0  0  0  0  0  0  0  0  0
    4.4002   -4.7538    0.0000 C   0  0  0  0  0  0  0  0  0  0  0  0
    3.6865   -5.1663    0.0000 O   0  0  0  0  0  0  0  0  0  0  0  0
    2.9727   -4.7538    0.0000 C   0  0  0  0  0  0  0  0  0  0  0  0
    2.9727   -3.9288    0.0000 C   0  0  0  0  0  0  0  0  0  0  0  0
    2.2591   -3.5163    0.0000 C   0  0  0  0  0  0  0  0  0  0  0  0
    1.5387   -3.9288    0.0000 C   0  0  0  0  0  0  0  0  0  0  0  0
    0.8251   -3.5163    0.0000 I   0  0  0  0  0  0  0  0  0  0  0  0
    1.5387   -4.7538    0.0000 C   0  0  0  0  0  0  0  0  0  0  0  0
    0.8251   -5.1663    0.0000 O   0  0  0  0  0  0  0  0  0  0  0  0
    2.2591   -5.1663    0.0000 C   0  0  0  0  0  0  0  0  0  0  0  0
    2.2591   -5.9914    0.0000 I   0  0  0  0  0  0  0  0  0  0  0  0
  3  4  1  0
  4  5  2  0
  4  6  1  0
  6  7  2  0
  6 15  1  0
  7  8  1  0
  7  9  1  0
  9 10  1  0
  9 11  2  0
 11 12  1  0
 11 13  1  0
 13 14  1  0
 13 15  2  0
 15 16  1  0
 16 17  1  0
 16 28  2  0
 17 18  2  0
 17 25  1  0
 18 19  1  0
 19 20  1  0
 19 21  2  0
 21 22  1  0
 21 23  1  0
 23 24  1  0
 23 25  2  0
 25 26  1  0
 26 27  1  0
 27 28  1  0
 27 34  2  0
 28 29  1  0
 29 30  2  0
 30 31  1  0
 30 32  1  0
 32 33  2  0
 32 34  1  0
 34 35  1  0
M  CHG  4   1   1   2   1   3  -1  22  -1
M  END
>  <Formula>  (76) 
C20H2Cl4I4Na2O5

>  <FW>  (76) 
1017.6363 (22.9892+22.9892+971.6579)

>  <DSSTox_CID>  (76) 
2814

>  <NR-Aromatase>  (76) 
0

>  <NR-AR>  (76) 
1

>  <NR-AR-LBD>  (76) 
0

>  <NR-ER-LBD>  (76) 
0

>  <NR-PPAR-gamma>  (76) 
0

>  <NR-AhR>  (76) 
1

>  <SR-ATAD5>  (76) 
0

$$$$
NCGC00167571-01
     RDKit          2D

 41 44  0  0  1  0  0  0  0  0999 V2000
    4.2945   -1.7001    0.0000 C   0  0  0  0  0  0  0  0  0  0  0  0
    2.8814   -2.5281    0.0000 C   0  0  0  0  0  0  0  0  0  0  0  0
    2.1638   -2.9476    0.0000 C   0  0  0  0  0  0  0  0  0  0  0  0
    4.2945   -2.5281    0.0000 C   0  0  0  0  0  0  0  0  0  0  0  0
    3.5879   -2.9476    0.0000 C   0  0  0  0  0  0  0  0  0  0  0  0
    5.0893   -1.4462    0.0000 C   0  0  0  0  0  0  0  0  0  0  0  0
    2.1638   -3.7646    0.0000 C   0  0  0  0  0  0  0  0  0  0  0  0
    2.8814   -1.7001    0.0000 C   0  0  0  0  0  0  0  0  0  0  0  0
    3.5879   -1.2916    0.0000 C   0  0  0  0  0  0  0  0  0  0  0  0
    5.5751   -2.1196    0.0000 C   0  0  0  0  0  0  0  0  0  0  0  0
    1.4462   -2.5281    0.0000 C   0  0  0  0  0  0  0  0  0  0  0  0
    5.0893   -2.7710    0.0000 C   0  0  0  0  0  0  0  0  0  0  0  0
    1.4462   -4.1841    0.0000 C   0  0  0  0  0  0  0  0  0  0  0  0
    5.3101   -0.6403    0.0000 C   0  0  0  0  0  0  0  0  0  0  0  0
    3.5879   -3.7646    0.0000 C   0  0  0  0  0  0  0  0  0  0  0  0
    0.7397   -2.9476    0.0000 C   0  0  0  0  0  0  0  0  0  0  0  0
    0.7397   -3.7646    0.0000 C   0  0  0  0  0  0  0  0  0  0  0  0
    2.8814   -4.1841    0.0000 C   0  0  0  0  0  0  0  0  0  0  0  0
    2.8703   -3.2236    0.0000 F   0  0  0  0  0  0  0  0  0  0  0  0
    4.7250   -0.0442    0.0000 O   0  0  0  0  0  0  0  0  0  0  0  0
    0.0000   -4.1951    0.0000 O   0  0  0  0  0  0  0  0  0  0  0  0
    5.9173   -1.4462    0.0000 O   0  0  0  0  0  0  0  0  0  0  0  0
    4.2945   -0.8611    0.0000 C   0  0  0  0  0  0  0  0  0  0  0  0
    2.1417   -1.2806    0.0000 O   0  0  0  0  0  0  0  0  0  0  0  0
    2.1638   -2.1196    0.0000 C   0  0  0  0  0  0  0  0  0  0  0  0
    6.4031   -2.1086    0.0000 C   0  0  0  0  0  0  0  0  0  0  0  0
    6.1050   -0.4416    0.0000 C   0  0  0  0  0  0  0  0  0  0  0  0
    6.6901   -1.0267    0.0000 O   0  0  0  0  0  0  0  0  0  0  0  0
    7.4850   -0.8280    0.0000 C   0  0  0  0  0  0  0  0  0  0  0  0
    8.0591   -1.4131    0.0000 C   0  0  0  0  0  0  0  0  0  0  0  0
    8.8649   -1.2144    0.0000 C   0  0  0  0  0  0  0  0  0  0  0  0
    7.8382   -2.2080    0.0000 C   0  0  0  0  0  0  0  0  0  0  0  0
    9.4390   -1.7995    0.0000 C   0  0  0  0  0  0  0  0  0  0  0  0
    8.4233   -2.8041    0.0000 C   0  0  0  0  0  0  0  0  0  0  0  0
    9.2182   -2.5944    0.0000 C   0  0  0  0  0  0  0  0  0  0  0  0
    7.7168   -0.0331    0.0000 O   0  0  0  0  0  0  0  0  0  0  0  0
   10.2339   -1.6008    0.0000 S   0  0  0  0  0  0  0  0  0  0  0  0
   11.0398   -1.3910    0.0000 O   0  0  0  0  0  0  0  0  0  0  0  0
   10.0352   -0.7948    0.0000 O   0  0  0  0  0  0  0  0  0  0  0  0
   10.4436   -2.3957    0.0000 O   0  0  0  0  0  0  0  0  0  0  0  0
    8.9201    0.0000    0.0000 Na  0  0  0  0  0 15  0  0  0  0  0  0
  1  4  1  0
  1  6  1  0
  1  9  1  0
  1 23  1  1
  2  8  1  0
  2  3  1  0
  2 19  1  6
  2  5  1  0
  3  7  1  0
  3 11  1  0
  3 25  1  1
  4  5  1  0
  4 12  1  1
  5 15  1  6
  6 10  1  0
  6 14  1  0
  6 22  1  6
  7 13  2  0
  7 18  1  0
  8  9  1  0
  8 24  1  1
 10 26  1  6
 10 12  1  0
 11 16  2  0
 13 17  1  0
 14 20  2  0
 14 27  1  0
 15 18  1  0
 16 17  1  0
 17 21  2  0
 27 28  1  0
 28 29  1  0
 29 30  1  0
 29 36  2  0
 30 31  2  0
 30 32  1  0
 31 33  1  0
 32 34  2  0
 33 35  2  0
 33 37  1  0
 34 35  1  0
 37 38  1  0
 37 39  2  0
 37 40  2  0
M  CHG  2  38  -1  41   1
M  END
>  <Formula>  (77) 
C29H32FNaO9S

>  <FW>  (77) 
598.6122 (575.6229+22.9892)

>  <DSSTox_CID>  (77) 
26722

>  <NR-AR>  (77) 
1

>  <NR-AR-LBD>  (77) 
1

>  <NR-ER>  (77) 
1

>  <NR-ER-LBD>  (77) 
0

>  <NR-PPAR-gamma>  (77) 
0

>  <SR-MMP>  (77) 
0

>  <SR-p53>  (77) 
0

$$$$
NCGC00096040-01
     RDKit          2D

108111  0  0  1  0  0  0  0  0999 V2000
   21.3771   -2.4750    0.0000 C   0  0  0  0  0  0  0  0  0  0  0  0
   21.3771   -3.3000    0.0000 C   0  0  0  0  0  0  0  0  0  0  0  0
   20.6734   -2.0625    0.0000 C   0  0  0  0  0  0  0  0  0  0  0  0
   20.6734   -3.7124    0.0000 C   0  0  0  0  0  0  0  0  0  0  0  0
   19.9697   -2.4750    0.0000 O   0  0  0  0  0  0  0  0  0  0  0  0
   19.9697   -3.3000    0.0000 C   0  0  0  0  0  0  0  0  0  0  0  0
   20.6734   -1.2132    0.0000 C   0  0  0  0  0  0  0  0  0  0  0  0
   22.1050   -2.0625    0.0000 O   0  0  0  0  0  0  0  0  0  0  0  0
   22.1050   -3.7124    0.0000 O   0  0  0  0  0  0  0  0  0  0  0  0
   20.6734   -4.5375    0.0000 O   0  0  0  0  0  0  0  0  0  0  0  0
   19.2418   -3.7124    0.0000 O   0  0  0  0  0  0  0  0  0  0  0  0
   21.3771   -0.8250    0.0000 O   0  0  0  0  0  0  0  0  0  0  0  0
   21.3771   -4.9742    0.0000 C   0  0  0  0  0  0  0  0  0  0  0  0
   21.3771   -5.7992    0.0000 C   0  0  0  0  0  0  0  0  0  0  0  0
   22.1050   -4.5375    0.0000 O   0  0  0  0  0  0  0  0  0  0  0  0
   22.1050   -6.2117    0.0000 C   0  0  0  0  0  0  0  0  0  0  0  0
   22.8329   -4.9742    0.0000 C   0  0  0  0  0  0  0  0  0  0  0  0
   22.8329   -5.7992    0.0000 C   0  0  0  0  0  0  0  0  0  0  0  0
   23.5608   -4.5375    0.0000 C   0  0  0  0  0  0  0  0  0  0  0  0
   24.2645   -4.9742    0.0000 O   0  0  0  0  0  0  0  0  0  0  0  0
   23.5608   -6.2117    0.0000 O   0  0  0  0  0  0  0  0  0  0  0  0
   22.1050   -7.0367    0.0000 O   0  0  0  0  0  0  0  0  0  0  0  0
   20.6734   -6.2117    0.0000 O   0  0  0  0  0  0  0  0  0  0  0  0
   21.3771   -7.4735    0.0000 C   0  0  0  0  0  0  0  0  0  0  0  0
   21.3771   -8.2985    0.0000 O   0  0  0  0  0  0  0  0  0  0  0  0
   20.6734   -7.0367    0.0000 N   0  0  0  0  0  0  0  0  0  0  0  0
   18.5138   -3.3000    0.0000 C   0  0  0  0  0  0  0  0  0  0  0  0
   18.5138   -2.4750    0.0000 C   0  0  0  0  0  0  0  0  0  0  0  0
   17.7859   -3.7124    0.0000 C   0  0  0  0  0  0  0  0  0  0  0  0
   17.8344   -2.0139    0.0000 C   0  0  0  0  0  0  0  0  0  0  0  0
   19.1932   -2.0139    0.0000 N   0  0  0  0  0  0  0  0  0  0  0  0
   18.1013   -1.2132    0.0000 N   0  0  0  0  0  0  0  0  0  0  0  0
   18.9264   -1.2132    0.0000 C   0  0  0  0  0  0  0  0  0  0  0  0
   17.0822   -3.3000    0.0000 N   0  0  0  0  0  0  0  0  0  0  0  0
   17.7859   -5.3139    0.0000 C   0  0  0  0  0  0  0  0  0  0  0  0
   18.5138   -5.7264    0.0000 O   0  0  0  0  0  0  0  0  0  0  0  0
   17.0822   -5.7264    0.0000 N   0  0  0  0  0  0  0  0  0  0  0  0
   16.3785   -3.7124    0.0000 C   0  0  0  0  0  0  0  0  0  0  0  0
   15.6506   -3.3000    0.0000 C   0  0  0  0  0  0  0  0  0  0  0  0
   16.3785   -4.5375    0.0000 O   0  0  0  0  0  0  0  0  0  0  0  0
   14.9227   -3.7124    0.0000 C   0  0  0  0  0  0  0  0  0  0  0  0
   15.6506   -2.4750    0.0000 N   0  0  0  0  0  0  0  0  0  0  0  0
   14.2190   -3.3000    0.0000 C   0  0  0  0  0  0  0  0  0  0  0  0
   14.9227   -2.0625    0.0000 C   0  0  0  0  0  0  0  0  0  0  0  0
   14.2190   -2.4750    0.0000 N   0  0  0  0  0  0  0  0  0  0  0  0
   13.4911   -3.7124    0.0000 N   0  0  0  0  0  0  0  0  0  0  0  0
   14.9227   -4.5375    0.0000 C   0  0  0  0  0  0  0  0  0  0  0  0
   14.9227   -1.2132    0.0000 C   0  0  0  0  0  0  0  0  0  0  0  0
   15.6506   -0.8250    0.0000 C   0  0  0  0  0  0  0  0  0  0  0  0
   14.2190   -0.8250    0.0000 N   0  0  0  0  0  0  0  0  0  0  0  0
   13.4911   -1.2132    0.0000 C   0  0  0  0  0  0  0  0  0  0  0  0
   12.7874   -0.8250    0.0000 C   0  0  0  0  0  0  0  0  0  0  0  0
   12.0595   -1.2132    0.0000 C   0  0  0  0  0  0  0  0  0  0  0  0
   12.7874    0.0000    0.0000 N   0  0  0  0  0  0  0  0  0  0  0  0
   11.3315   -0.8250    0.0000 N   0  0  0  0  0  0  0  0  0  0  0  0
   12.0595   -2.0625    0.0000 O   0  0  0  0  0  0  0  0  0  0  0  0
   16.3785   -1.2132    0.0000 C   0  0  0  0  0  0  0  0  0  0  0  0
   17.0822   -0.8250    0.0000 N   0  0  0  0  0  0  0  0  0  0  0  0
   16.3785   -2.0625    0.0000 O   0  0  0  0  0  0  0  0  0  0  0  0
   17.0822   -6.5514    0.0000 C   0  0  0  0  0  0  0  0  0  0  0  0
   16.3785   -6.9639    0.0000 C   0  0  0  0  0  0  0  0  0  0  0  0
   17.7859   -6.9639    0.0000 C   0  0  0  0  0  0  0  0  0  0  0  0
   15.6506   -6.5514    0.0000 C   0  0  0  0  0  0  0  0  0  0  0  0
   16.3785   -7.8132    0.0000 O   0  0  0  0  0  0  0  0  0  0  0  0
   15.6506   -5.7264    0.0000 C   0  0  0  0  0  0  0  0  0  0  0  0
   14.9227   -6.9639    0.0000 C   0  0  0  0  0  0  0  0  0  0  0  0
   14.2190   -6.5514    0.0000 N   0  0  0  0  0  0  0  0  0  0  0  0
   14.9227   -7.8132    0.0000 O   0  0  0  0  0  0  0  0  0  0  0  0
   13.4911   -6.9639    0.0000 C   0  0  0  0  0  0  0  0  0  0  0  0
   12.7874   -6.5514    0.0000 C   0  0  0  0  0  0  0  0  0  0  0  0
   12.0595   -6.9639    0.0000 N   0  0  0  0  0  0  0  0  0  0  0  0
   12.7874   -5.7264    0.0000 O   0  0  0  0  0  0  0  0  0  0  0  0
   13.4911   -7.8132    0.0000 C   0  0  0  0  0  0  0  0  0  0  0  0
   12.7874   -8.2014    0.0000 O   0  0  0  0  0  0  0  0  0  0  0  0
   14.2190   -8.2014    0.0000 C   0  0  0  0  0  0  0  0  0  0  0  0
   11.3315   -6.5514    0.0000 C   0  0  0  0  0  0  0  0  0  0  0  0
   10.6036   -6.9639    0.0000 C   0  0  0  0  0  0  0  0  0  0  0  0
    9.8999   -6.5514    0.0000 C   0  0  0  0  0  0  0  0  0  0  0  0
    9.2205   -7.0367    0.0000 N   0  0  0  0  0  0  0  0  0  0  0  0
    9.6573   -5.7749    0.0000 S   0  0  0  0  0  0  0  0  0  0  0  0
    8.5654   -6.5514    0.0000 C   0  0  0  0  0  0  0  0  0  0  0  0
    8.8080   -5.7749    0.0000 C   0  0  0  0  0  0  0  0  0  0  0  0
    7.7647   -6.7941    0.0000 C   0  0  0  0  0  0  0  0  0  0  0  0
    7.5220   -7.5948    0.0000 S   0  0  0  0  0  0  0  0  0  0  0  0
    7.0852   -6.3330    0.0000 N   0  0  0  0  0  0  0  0  0  0  0  0
    6.6728   -7.5948    0.0000 C   0  0  0  0  0  0  0  0  0  0  0  0
    6.4301   -6.7941    0.0000 C   0  0  0  0  0  0  0  0  0  0  0  0
    5.7264   -6.3816    0.0000 C   0  0  0  0  0  0  0  0  0  0  0  0
    4.9742   -6.7941    0.0000 N   0  0  0  0  0  0  0  0  0  0  0  0
    5.7264   -5.5808    0.0000 O   0  0  0  0  0  0  0  0  0  0  0  0
    4.2705   -6.3816    0.0000 C   0  0  0  0  0  0  0  0  0  0  0  0
    3.5669   -6.7941    0.0000 C   0  0  0  0  0  0  0  0  0  0  0  0
    2.8632   -6.3573    0.0000 C   0  0  0  0  0  0  0  0  0  0  0  0
    2.1353   -6.7698    0.0000 C   0  0  0  0  0  0  0  0  0  0  0  0
    1.4316   -6.3573    0.0000 N   0  0  0  0  0  0  0  0  0  0  0  0
    0.7036   -6.7455    0.0000 C   0  0  0  0  0  0  0  0  0  0  0  0
    0.0000   -6.3330    0.0000 N   0  0  0  0  0  0  0  0  0  0  0  0
    0.7036   -7.5705    0.0000 N   0  0  0  0  0  0  0  0  0  0  0  0
    9.7301  -10.7249    0.0000 S   0  0  0  0  0  0  0  0  0  0  0  0
   10.5551  -10.7249    0.0000 O   0  0  0  0  0  0  0  0  0  0  0  0
    8.9051  -10.7249    0.0000 O   0  0  0  0  0  0  0  0  0  0  0  0
    9.7301  -11.5499    0.0000 O   0  0  0  0  0  0  0  0  0  0  0  0
    9.7301   -9.8999    0.0000 O   0  0  0  0  0  0  0  0  0  0  0  0
   13.1999  -10.6764    0.0000 S   0  0  0  0  0  0  0  0  0  0  0  0
   14.0249  -10.6764    0.0000 O   0  0  0  0  0  0  0  0  0  0  0  0
   12.3749  -10.6764    0.0000 O   0  0  0  0  0  0  0  0  0  0  0  0
   13.1999  -11.5014    0.0000 O   0  0  0  0  0  0  0  0  0  0  0  0
   13.1999   -9.8514    0.0000 O   0  0  0  0  0  0  0  0  0  0  0  0
  1  2  1  0
  1  3  1  0
  1  8  1  1
  2  4  1  0
  2  9  1  6
  3  5  1  0
  3  7  1  1
  4  6  1  0
  4 10  1  6
  5  6  1  0
  6 11  1  6
  7 12  1  0
 13 10  1  1
 27 11  1  6
 13 14  1  0
 13 15  1  0
 14 16  1  0
 14 23  1  6
 15 17  1  0
 16 18  1  0
 16 22  1  6
 17 18  1  0
 17 19  1  6
 18 21  1  1
 19 20  1  0
 22 24  1  0
 24 25  2  0
 24 26  1  0
 27 28  1  0
 27 29  1  0
 28 30  2  0
 28 31  1  0
 29 34  1  1
 29 35  1  0
 30 32  1  0
 31 33  1  0
 32 33  2  0
 34 38  1  0
 35 36  2  0
 35 37  1  0
 60 37  1  0
 38 39  1  0
 38 40  2  0
 39 41  2  0
 39 42  1  0
 41 43  1  0
 41 47  1  0
 42 44  2  0
 43 45  2  0
 43 46  1  0
 44 45  1  0
 48 44  1  0
 48 49  1  1
 48 50  1  0
 49 57  1  0
 50 51  1  0
 51 52  1  0
 52 53  1  0
 52 54  1  1
 53 55  1  0
 53 56  2  0
 57 58  1  0
 57 59  2  0
 60 61  1  0
 60 62  1  6
 61 63  1  0
 61 64  1  1
 63 65  1  1
 63 66  1  0
 66 67  1  0
 66 68  2  0
 69 67  1  1
 69 70  1  0
 69 73  1  0
 70 71  1  0
 70 72  2  0
 71 76  1  0
 73 74  1  0
 73 75  1  1
 76 77  1  0
 77 78  1  0
 78 79  2  0
 78 80  1  0
 79 81  1  0
 80 82  1  0
 81 82  2  0
 81 83  1  0
 83 84  1  0
 83 85  2  0
 84 86  1  0
 85 87  1  0
 86 87  2  0
 87 88  1  0
 88 89  1  0
 88 90  2  0
 89 91  1  0
 91 92  1  0
 92 93  1  0
 93 94  1  0
 94 95  1  0
 95 96  1  0
 96 97  1  0
 96 98  2  0
 99100  2  0
 99101  2  0
 99102  1  0
 99103  1  0
104105  2  0
104106  2  0
104107  1  0
104108  1  0
M  END
>  <Formula>  (78) 
C55H88N20O29S4

>  <FW>  (78) 
1621.6638 (1425.5069+98.0785+98.0785)

>  <DSSTox_CID>  (78) 
27776

>  <NR-AR>  (78) 
1

>  <NR-AR-LBD>  (78) 
0

>  <NR-ER>  (78) 
0

>  <NR-PPAR-gamma>  (78) 
0

>  <SR-ATAD5>  (78) 
0

>  <SR-MMP>  (78) 
0

>  <SR-p53>  (78) 
1

$$$$
NCGC00094861-01
     RDKit          2D

 29 35  0  0  1  0  0  0  0  0999 V2000
    5.7332   -2.0636    0.0000 C   0  0  0  0  0  0  0  0  0  0  0  0
    5.0066   -2.4778    0.0000 C   0  0  0  0  0  0  0  0  0  0  0  0
    5.0066   -3.2989    0.0000 C   0  0  0  0  0  0  0  0  0  0  0  0
    4.3017   -2.0636    0.0000 C   0  0  0  0  0  0  0  0  0  0  0  0
    3.5823   -2.4778    0.0000 N   0  0  0  0  0  0  0  0  0  0  0  0
    4.3017   -3.7276    0.0000 C   0  0  0  0  0  0  0  0  0  0  0  0
    3.5823   -3.2989    0.0000 C   0  0  0  0  0  0  0  0  0  0  0  0
    5.7332   -1.2425    0.0000 C   0  0  0  0  0  0  0  0  0  0  0  0
    5.0066   -0.8211    0.0000 C   0  0  0  0  0  0  0  0  0  0  0  0
    4.3017   -1.2425    0.0000 C   0  0  0  0  0  0  0  0  0  0  0  0
    2.8702   -2.0636    0.0000 C   0  0  0  0  0  0  0  0  0  0  0  0
    2.8702   -1.2425    0.0000 C   0  0  0  0  0  0  0  0  0  0  0  0
    2.1436   -2.4778    0.0000 C   0  0  0  0  0  0  0  0  0  0  0  0
    1.4315   -2.0636    0.0000 C   0  0  0  0  0  0  0  0  0  0  0  0
    2.1436   -0.8211    0.0000 C   0  0  0  0  0  0  0  0  0  0  0  0
    1.4315   -1.2425    0.0000 C   0  0  0  0  0  0  0  0  0  0  0  0
    5.0066    0.0000    0.0000 N   0  0  0  0  0  0  0  0  0  0  0  0
    3.5823   -0.8211    0.0000 C   0  0  0  0  0  0  0  0  0  0  0  0
    3.5823    0.0000    0.0000 C   0  0  0  0  0  0  0  0  0  0  0  0
    6.5470    0.0000    0.0000 C   0  0  0  0  0  0  0  0  0  0  0  0
    2.8702   -3.7276    0.0000 O   0  0  0  0  0  0  0  0  0  0  0  0
    6.5470   -2.0636    0.0000 C   0  0  0  0  0  0  0  0  0  0  0  0
    7.2664   -2.4778    0.0000 C   0  0  0  0  0  0  0  0  0  0  0  0
    7.2664   -3.2989    0.0000 C   0  0  0  0  0  0  0  0  0  0  0  0
    6.1183   -3.7785    0.0000 O   0  0  0  0  0  0  0  0  0  0  0  0
    0.7194   -0.8356    0.0000 O   0  0  0  0  0  0  0  0  0  0  0  0
    0.7194   -2.4778    0.0000 O   0  0  0  0  0  0  0  0  0  0  0  0
    0.0000   -2.0636    0.0000 C   0  0  0  0  0  0  0  0  0  0  0  0
    0.0000   -1.2498    0.0000 C   0  0  0  0  0  0  0  0  0  0  0  0
  1 22  1  0
  1  8  1  1
  1  2  1  0
  2  4  1  0
  2  3  1  1
  3  6  1  1
  3 25  1  0
  4  5  1  6
  4 10  1  0
  5  7  1  0
  5 11  1  0
  6  7  1  0
  7 21  2  0
  9  8  1  1
  9 17  1  0
  9 10  1  0
 10 12  1  0
 10 18  1  1
 11 13  2  0
 11 12  1  0
 12 15  2  0
 13 14  1  0
 14 16  2  0
 14 27  1  0
 15 16  1  0
 16 26  1  0
 17 19  1  0
 17 20  1  0
 18 19  1  0
 20 22  1  0
 22 23  2  0
 23 24  1  0
 24 25  1  0
 26 29  1  0
 27 28  1  0
M  END
>  <Formula>  (79) 
C23H26N2O4

>  <FW>  (79) 
394.4635

>  <DSSTox_CID>  (79) 
4662

>  <NR-Aromatase>  (79) 
0

>  <NR-AR>  (79) 
1

>  <NR-AR-LBD>  (79) 
0

>  <NR-ER-LBD>  (79) 
0

>  <NR-PPAR-gamma>  (79) 
0

>  <NR-AhR>  (79) 
0

>  <SR-ATAD5>  (79) 
0

>  <SR-MMP>  (79) 
0

>  <SR-p53>  (79) 
0

$$$$
NCGC00255189-01
     RDKit          2D

 32 36  0  0  1  0  0  0  0  0999 V2000
    5.0988   -2.8292    0.0000 C   0  0  0  0  0  0  0  0  0  0  0  0
    4.3157   -3.0929    0.0000 C   0  0  0  0  0  0  0  0  0  0  0  0
    4.3157   -3.9400    0.0000 C   0  0  0  0  0  0  0  0  0  0  0  0
    2.1578   -4.3316    0.0000 C   0  0  0  0  0  0  0  0  0  0  0  0
    5.5863   -2.1658    0.0000 N   0  0  0  0  0  0  0  0  0  0  0  0
    3.6124   -4.3396    0.0000 C   0  0  0  0  0  0  0  0  0  0  0  0
    5.5624   -3.5165    0.0000 C   0  0  0  0  0  0  0  0  0  0  0  0
    2.8771   -3.9320    0.0000 C   0  0  0  0  0  0  0  0  0  0  0  0
    2.1578   -5.1548    0.0000 C   0  0  0  0  0  0  0  0  0  0  0  0
    3.6124   -2.6773    0.0000 C   0  0  0  0  0  0  0  0  0  0  0  0
    2.8771   -3.0929    0.0000 C   0  0  0  0  0  0  0  0  0  0  0  0
    1.4545   -3.9320    0.0000 C   0  0  0  0  0  0  0  0  0  0  0  0
    6.3616   -3.2607    0.0000 O   0  0  0  0  0  0  0  0  0  0  0  0
    5.0988   -4.1878    0.0000 C   0  0  0  0  0  0  0  0  0  0  0  0
    6.3616   -2.4295    0.0000 C   0  0  0  0  0  0  0  0  0  0  0  0
    5.0988   -1.3586    0.0000 C   0  0  0  0  0  0  0  0  0  0  0  0
    1.4545   -5.5624    0.0000 C   0  0  0  0  0  0  0  0  0  0  0  0
    3.6124   -5.1548    0.0000 C   0  0  0  0  0  0  0  0  0  0  0  0
    0.7433   -4.3396    0.0000 C   0  0  0  0  0  0  0  0  0  0  0  0
    0.7433   -5.1548    0.0000 C   0  0  0  0  0  0  0  0  0  0  0  0
    2.8771   -5.5624    0.0000 C   0  0  0  0  0  0  0  0  0  0  0  0
    7.2487   -0.8231    0.0000 C   0  0  0  0  0  0  0  0  0  0  0  0
    5.7702   -0.9351    0.0000 C   0  0  0  0  0  0  0  0  0  0  0  0
    4.4276   -0.9351    0.0000 O   0  0  0  0  0  0  0  0  0  0  0  0
    6.5055   -1.3347    0.0000 O   0  0  0  0  0  0  0  0  0  0  0  0
    7.2487    0.0000    0.0000 O   0  0  0  0  0  0  0  0  0  0  0  0
    0.0000   -5.5544    0.0000 O   0  0  0  0  0  0  0  0  0  0  0  0
    4.3157   -2.2617    0.0000 C   0  0  0  0  0  0  0  0  0  0  0  0
    2.1578   -2.6773    0.0000 O   0  0  0  0  0  0  0  0  0  0  0  0
    2.1578   -3.4845    0.0000 C   0  0  0  0  0  0  0  0  0  0  0  0
    7.0329   -1.9500    0.0000 C   0  0  0  0  0  0  0  0  0  0  0  0
    7.9919   -1.1908    0.0000 C   0  0  0  0  0  0  0  0  0  0  0  0
  1  2  1  0
  1  5  1  0
  1  7  1  0
  1 16  1  1
  2  3  1  0
  2 10  1  0
  2 28  1  1
  3  6  1  0
  3 14  1  1
  4  8  1  0
  4  9  1  0
  4 12  1  0
  4 30  1  1
  5 15  2  0
  6 18  1  6
  6  8  1  0
  7 13  1  0
  7 14  1  6
  8 11  1  1
  9 17  2  0
  9 21  1  0
 10 11  1  0
 11 29  1  1
 12 19  2  0
 13 15  1  0
 15 31  1  0
 16 23  1  0
 16 24  2  0
 17 20  1  0
 18 21  1  0
 19 20  1  0
 20 27  2  0
 22 25  1  0
 22 26  2  0
 22 32  1  0
 23 25  1  0
M  END
>  <Formula>  (80) 
C25H31NO6

>  <FW>  (80) 
441.5167

>  <DSSTox_CID>  (80) 
378

>  <NR-AR>  (80) 
1

>  <NR-AR-LBD>  (80) 
0

>  <NR-ER-LBD>  (80) 
0

>  <NR-PPAR-gamma>  (80) 
0

>  <SR-HSE>  (80) 
0

>  <SR-MMP>  (80) 
0

>  <SR-p53>  (80) 
0

$$$$
NCGC00021301-04
     RDKit          2D

 32 36  0  0  1  0  0  0  0  0999 V2000
    2.1379   -3.5656    0.0000 C   0  0  0  0  0  0  0  0  0  0  0  0
    2.1379   -4.3835    0.0000 C   0  0  0  0  0  0  0  0  0  0  0  0
    1.4277   -3.1495    0.0000 C   0  0  0  0  0  0  0  0  0  0  0  0
    1.4277   -4.7996    0.0000 C   0  0  0  0  0  0  0  0  0  0  0  0
    0.7174   -3.5656    0.0000 C   0  0  0  0  0  0  0  0  0  0  0  0
    0.7174   -4.3835    0.0000 C   0  0  0  0  0  0  0  0  0  0  0  0
    2.8625   -3.1495    0.0000 C   0  0  0  0  0  0  0  0  0  0  0  0
    3.5728   -3.5656    0.0000 C   0  0  0  0  0  0  0  0  0  0  0  0
    2.8625   -4.7996    0.0000 C   0  0  0  0  0  0  0  0  0  0  0  0
    3.5728   -4.3907    0.0000 C   0  0  0  0  0  0  0  0  0  0  0  0
    2.8625   -2.3245    0.0000 C   0  0  0  0  0  0  0  0  0  0  0  0
    3.5728   -1.9155    0.0000 C   0  0  0  0  0  0  0  0  0  0  0  0
    4.2902   -3.1495    0.0000 C   0  0  0  0  0  0  0  0  0  0  0  0
    4.2902   -2.3245    0.0000 C   0  0  0  0  0  0  0  0  0  0  0  0
    5.0722   -3.4006    0.0000 C   0  0  0  0  0  0  0  0  0  0  0  0
    5.5601   -2.7406    0.0000 C   0  0  0  0  0  0  0  0  0  0  0  0
    5.0722   -2.0662    0.0000 C   0  0  0  0  0  0  0  0  0  0  0  0
    6.3492   -2.4823    0.0000 O   0  0  0  0  0  0  0  0  0  0  0  0
    6.3492   -1.6573    0.0000 C   0  0  0  0  0  0  0  0  0  0  0  0
    5.5601   -1.4062    0.0000 O   0  0  0  0  0  0  0  0  0  0  0  0
    0.0000   -4.7996    0.0000 O   0  0  0  0  0  0  0  0  0  0  0  0
    2.8625   -5.6246    0.0000 F   0  0  0  0  0  0  0  0  0  0  0  0
    2.1379   -2.7263    0.0000 C   0  0  0  0  0  0  0  0  0  0  0  0
    2.8625   -3.9746    0.0000 F   0  0  0  0  0  0  0  0  0  0  0  0
    2.1379   -1.9155    0.0000 O   0  0  0  0  0  0  0  0  0  0  0  0
    4.2902   -1.4994    0.0000 C   0  0  0  0  0  0  0  0  0  0  0  0
    5.0722   -1.2412    0.0000 C   0  0  0  0  0  0  0  0  0  0  0  0
    5.7825   -0.8251    0.0000 C   0  0  0  0  0  0  0  0  0  0  0  0
    4.3476   -0.8322    0.0000 O   0  0  0  0  0  0  0  0  0  0  0  0
    5.7825    0.0000    0.0000 O   0  0  0  0  0  0  0  0  0  0  0  0
    6.7654   -0.9470    0.0000 C   0  0  0  0  0  0  0  0  0  0  0  0
    7.1743   -1.6573    0.0000 C   0  0  0  0  0  0  0  0  0  0  0  0
  1  3  1  0
  1  7  1  0
  1  2  1  0
  1 23  1  1
  2  4  2  0
  2  9  1  0
  3  5  2  0
  4  6  1  0
  5  6  1  0
  6 21  2  0
  7 11  1  0
  7  8  1  0
  7 24  1  6
  8 10  1  6
  8 13  1  0
  9 10  1  0
  9 22  1  6
 11 12  1  0
 11 25  1  1
 12 14  1  0
 13 15  1  1
 13 14  1  0
 14 17  1  0
 14 26  1  1
 16 15  1  6
 16 18  1  0
 16 17  1  0
 17 20  1  0
 17 27  1  1
 18 19  1  0
 19 20  1  0
 19 31  1  0
 19 32  1  0
 27 28  1  0
 27 29  2  0
 28 30  1  0
M  END
>  <Formula>  (81) 
C24H30F2O6

>  <FW>  (81) 
452.4882

>  <DSSTox_CID>  (81) 
20674

>  <NR-AR>  (81) 
1

>  <NR-AR-LBD>  (81) 
0

>  <NR-ER>  (81) 
0

>  <NR-ER-LBD>  (81) 
0

>  <NR-PPAR-gamma>  (81) 
0

>  <SR-ATAD5>  (81) 
0

>  <SR-MMP>  (81) 
0

>  <SR-p53>  (81) 
0

$$$$
NCGC00016950-01
     RDKit          2D

 35 39  0  0  1  0  0  0  0  0999 V2000
    4.3013   -2.1755    0.0000 C   0  0  0  0  0  0  0  0  0  0  0  0
    5.0871   -1.9191    0.0000 C   0  0  0  0  0  0  0  0  0  0  0  0
    2.8869   -3.0110    0.0000 C   0  0  0  0  0  0  0  0  0  0  0  0
    2.1672   -3.4245    0.0000 C   0  0  0  0  0  0  0  0  0  0  0  0
    4.3013   -3.0110    0.0000 C   0  0  0  0  0  0  0  0  0  0  0  0
    3.5899   -3.4245    0.0000 C   0  0  0  0  0  0  0  0  0  0  0  0
    2.1672   -4.2600    0.0000 C   0  0  0  0  0  0  0  0  0  0  0  0
    5.9226   -1.9191    0.0000 O   0  0  0  0  0  0  0  0  0  0  0  0
    2.8869   -2.1755    0.0000 C   0  0  0  0  0  0  0  0  0  0  0  0
    3.5899   -1.7701    0.0000 C   0  0  0  0  0  0  0  0  0  0  0  0
    5.5752   -2.6056    0.0000 C   0  0  0  0  0  0  0  0  0  0  0  0
    6.7498   -1.9191    0.0000 C   0  0  0  0  0  0  0  0  0  0  0  0
    1.4724   -3.0110    0.0000 C   0  0  0  0  0  0  0  0  0  0  0  0
    5.0871   -3.2591    0.0000 C   0  0  0  0  0  0  0  0  0  0  0  0
    7.2048   -1.2573    0.0000 C   0  0  0  0  0  0  0  0  0  0  0  0
    1.4724   -4.6653    0.0000 C   0  0  0  0  0  0  0  0  0  0  0  0
    5.3188   -1.1332    0.0000 C   0  0  0  0  0  0  0  0  0  0  0  0
    3.5899   -4.2600    0.0000 C   0  0  0  0  0  0  0  0  0  0  0  0
    0.7362   -3.4245    0.0000 C   0  0  0  0  0  0  0  0  0  0  0  0
    0.7362   -4.2600    0.0000 C   0  0  0  0  0  0  0  0  0  0  0  0
    8.0154   -1.2656    0.0000 O   0  0  0  0  0  0  0  0  0  0  0  0
    2.8869   -4.6653    0.0000 C   0  0  0  0  0  0  0  0  0  0  0  0
    7.2048   -2.6056    0.0000 O   0  0  0  0  0  0  0  0  0  0  0  0
    6.9483   -0.4550    0.0000 C   0  0  0  0  0  0  0  0  0  0  0  0
    2.8951   -3.7968    0.0000 Cl  0  0  0  0  0  0  0  0  0  0  0  0
    4.7398   -0.5294    0.0000 O   0  0  0  0  0  0  0  0  0  0  0  0
    8.2718   -0.4550    0.0000 C   0  0  0  0  0  0  0  0  0  0  0  0
    7.5936    0.0000    0.0000 C   0  0  0  0  0  0  0  0  0  0  0  0
    0.0000   -4.6736    0.0000 O   0  0  0  0  0  0  0  0  0  0  0  0
    4.3013   -1.3400    0.0000 C   0  0  0  0  0  0  0  0  0  0  0  0
    2.1589   -1.7619    0.0000 O   0  0  0  0  0  0  0  0  0  0  0  0
    2.1672   -2.6056    0.0000 C   0  0  0  0  0  0  0  0  0  0  0  0
    6.1129   -0.9264    0.0000 C   0  0  0  0  0  0  0  0  0  0  0  0
    6.3114   -0.1075    0.0000 Cl  0  0  0  0  0  0  0  0  0  0  0  0
    6.4106   -2.5974    0.0000 C   0  0  0  0  0  0  0  0  0  0  0  0
  1  2  1  0
  1  5  1  0
  1 10  1  0
  1 30  1  1
  2  8  1  6
  2 11  1  0
  2 17  1  0
  3  9  1  0
  3  4  1  0
  3 25  1  6
  3  6  1  0
  4  7  1  0
  4 13  1  0
  4 32  1  1
  5  6  1  0
  5 14  1  1
  6 18  1  6
  7 16  2  0
  7 22  1  0
  8 12  1  0
  9 10  1  0
  9 31  1  1
 11 35  1  6
 11 14  1  0
 12 15  1  0
 12 23  2  0
 13 19  2  0
 15 21  1  0
 15 24  2  0
 16 20  1  0
 17 26  2  0
 17 33  1  0
 18 22  1  0
 19 20  1  0
 20 29  2  0
 21 27  1  0
 24 28  1  0
 27 28  2  0
 33 34  1  0
M  END
>  <Formula>  (82) 
C27H30Cl2O6

>  <FW>  (82) 
521.4295

>  <DSSTox_CID>  (82) 
3333

>  <NR-AR>  (82) 
1

>  <NR-ER>  (82) 
0

>  <NR-ER-LBD>  (82) 
0

>  <NR-PPAR-gamma>  (82) 
0

>  <NR-AhR>  (82) 
0

>  <SR-ATAD5>  (82) 
0

>  <SR-MMP>  (82) 
1

>  <SR-p53>  (82) 
0

$$$$
NCGC00016943-01
     RDKit          2D

 34 37  0  0  1  0  0  0  0  0999 V2000
    2.1451   -3.9445    0.0000 C   0  0  0  0  0  0  0  0  0  0  0  0
    2.1451   -4.7931    0.0000 C   0  0  0  0  0  0  0  0  0  0  0  0
    1.4301   -3.5437    0.0000 C   0  0  0  0  0  0  0  0  0  0  0  0
    1.4301   -5.2017    0.0000 C   0  0  0  0  0  0  0  0  0  0  0  0
    0.7150   -3.9445    0.0000 C   0  0  0  0  0  0  0  0  0  0  0  0
    0.7150   -4.7931    0.0000 C   0  0  0  0  0  0  0  0  0  0  0  0
    2.8522   -3.5437    0.0000 C   0  0  0  0  0  0  0  0  0  0  0  0
    3.5673   -3.9681    0.0000 C   0  0  0  0  0  0  0  0  0  0  0  0
    2.8522   -5.2017    0.0000 C   0  0  0  0  0  0  0  0  0  0  0  0
    3.5673   -4.7931    0.0000 C   0  0  0  0  0  0  0  0  0  0  0  0
    2.8522   -2.7108    0.0000 C   0  0  0  0  0  0  0  0  0  0  0  0
    3.5673   -2.3101    0.0000 C   0  0  0  0  0  0  0  0  0  0  0  0
    4.2980   -3.5437    0.0000 C   0  0  0  0  0  0  0  0  0  0  0  0
    4.2980   -2.7108    0.0000 C   0  0  0  0  0  0  0  0  0  0  0  0
    5.0759   -3.7952    0.0000 C   0  0  0  0  0  0  0  0  0  0  0  0
    5.5631   -3.1430    0.0000 C   0  0  0  0  0  0  0  0  0  0  0  0
    5.0759   -2.4672    0.0000 C   0  0  0  0  0  0  0  0  0  0  0  0
    0.0000   -5.2017    0.0000 O   0  0  0  0  0  0  0  0  0  0  0  0
    2.1451   -3.1430    0.0000 C   0  0  0  0  0  0  0  0  0  0  0  0
    2.8522   -6.0267    0.0000 F   0  0  0  0  0  0  0  0  0  0  0  0
    2.8522   -4.3766    0.0000 F   0  0  0  0  0  0  0  0  0  0  0  0
    2.1451   -2.3101    0.0000 O   0  0  0  0  0  0  0  0  0  0  0  0
    4.2980   -1.8858    0.0000 C   0  0  0  0  0  0  0  0  0  0  0  0
    5.0759   -1.6343    0.0000 C   0  0  0  0  0  0  0  0  0  0  0  0
    5.7910   -1.2101    0.0000 O   0  0  0  0  0  0  0  0  0  0  0  0
    4.3531   -1.2336    0.0000 S   0  0  0  0  0  0  0  0  0  0  0  0
    4.3531   -0.4007    0.0000 C   0  0  0  0  0  0  0  0  0  0  0  0
    3.6301    0.0000    0.0000 F   0  0  0  0  0  0  0  0  0  0  0  0
    5.7910   -2.0351    0.0000 O   0  0  0  0  0  0  0  0  0  0  0  0
    6.6160   -2.0351    0.0000 C   0  0  0  0  0  0  0  0  0  0  0  0
    6.3881   -3.1430    0.0000 C   0  0  0  0  0  0  0  0  0  0  0  0
    7.0246   -1.3358    0.0000 C   0  0  0  0  0  0  0  0  0  0  0  0
    7.0246   -2.7580    0.0000 O   0  0  0  0  0  0  0  0  0  0  0  0
    7.8575   -1.3358    0.0000 C   0  0  0  0  0  0  0  0  0  0  0  0
  1  3  1  0
  1  7  1  0
  1  2  1  0
  1 19  1  1
  2  4  2  0
  2  9  1  0
  3  5  2  0
  4  6  1  0
  5  6  1  0
  6 18  2  0
  7 11  1  0
  7  8  1  0
  7 21  1  6
  8 10  1  0
  8 13  1  0
  9 10  1  0
  9 20  1  6
 11 12  1  0
 11 22  1  1
 12 14  1  0
 13 15  1  1
 13 14  1  0
 14 17  1  0
 14 23  1  1
 15 16  1  0
 16 17  1  0
 16 31  1  6
 17 24  1  0
 17 29  1  6
 24 25  2  0
 24 26  1  0
 26 27  1  0
 27 28  1  0
 29 30  1  0
 30 32  1  0
 30 33  2  0
 32 34  1  0
M  END
>  <Formula>  (83) 
C25H31F3O5S

>  <FW>  (83) 
500.5708

>  <DSSTox_CID>  (83) 
25511

>  <NR-AR>  (83) 
1

>  <NR-AR-LBD>  (83) 
0

>  <NR-ER>  (83) 
0

>  <NR-ER-LBD>  (83) 
0

>  <NR-PPAR-gamma>  (83) 
0

>  <SR-ATAD5>  (83) 
0

>  <SR-MMP>  (83) 
1

>  <SR-p53>  (83) 
0

$$$$
NCGC00023193-04
     RDKit          2D

 31 35  0  0  1  0  0  0  0  0999 V2000
    5.0720   -1.2411    0.0000 C   0  0  0  0  0  0  0  0  0  0  0  0
    4.2901   -1.4993    0.0000 C   0  0  0  0  0  0  0  0  0  0  0  0
    2.8839   -2.3100    0.0000 C   0  0  0  0  0  0  0  0  0  0  0  0
    2.1593   -2.7189    0.0000 C   0  0  0  0  0  0  0  0  0  0  0  0
    4.2901   -2.3100    0.0000 C   0  0  0  0  0  0  0  0  0  0  0  0
    3.5726   -2.7261    0.0000 C   0  0  0  0  0  0  0  0  0  0  0  0
    5.5598   -1.9155    0.0000 C   0  0  0  0  0  0  0  0  0  0  0  0
    2.1593   -3.5511    0.0000 C   0  0  0  0  0  0  0  0  0  0  0  0
    5.5670   -0.5883    0.0000 O   0  0  0  0  0  0  0  0  0  0  0  0
    2.8839   -1.4993    0.0000 C   0  0  0  0  0  0  0  0  0  0  0  0
    3.5726   -1.0905    0.0000 C   0  0  0  0  0  0  0  0  0  0  0  0
    6.3418   -0.8393    0.0000 C   0  0  0  0  0  0  0  0  0  0  0  0
    6.3418   -1.6643    0.0000 O   0  0  0  0  0  0  0  0  0  0  0  0
    1.4420   -2.3100    0.0000 C   0  0  0  0  0  0  0  0  0  0  0  0
    5.0720   -2.5611    0.0000 C   0  0  0  0  0  0  0  0  0  0  0  0
    5.0720   -0.4161    0.0000 C   0  0  0  0  0  0  0  0  0  0  0  0
    1.4420   -3.9744    0.0000 C   0  0  0  0  0  0  0  0  0  0  0  0
    3.5726   -3.5511    0.0000 C   0  0  0  0  0  0  0  0  0  0  0  0
    0.7245   -2.7261    0.0000 C   0  0  0  0  0  0  0  0  0  0  0  0
    0.7245   -3.5439    0.0000 C   0  0  0  0  0  0  0  0  0  0  0  0
    2.8839   -3.9744    0.0000 C   0  0  0  0  0  0  0  0  0  0  0  0
    2.8911   -3.0991    0.0000 F   0  0  0  0  0  0  0  0  0  0  0  0
    5.8037    0.0000    0.0000 O   0  0  0  0  0  0  0  0  0  0  0  0
    0.0000   -3.9672    0.0000 O   0  0  0  0  0  0  0  0  0  0  0  0
    4.2901   -0.6600    0.0000 C   0  0  0  0  0  0  0  0  0  0  0  0
    2.1593   -1.0833    0.0000 O   0  0  0  0  0  0  0  0  0  0  0  0
    2.1593   -1.9011    0.0000 C   0  0  0  0  0  0  0  0  0  0  0  0
    4.3689    0.0000    0.0000 C   0  0  0  0  0  0  0  0  0  0  0  0
    7.1739   -0.8393    0.0000 C   0  0  0  0  0  0  0  0  0  0  0  0
    6.5570   -0.0359    0.0000 C   0  0  0  0  0  0  0  0  0  0  0  0
    3.6516   -0.4376    0.0000 O   0  0  0  0  0  0  0  0  0  0  0  0
  1  2  1  0
  1  7  1  0
  1  9  1  0
  1 16  1  1
  2  5  1  0
  2 11  1  0
  2 25  1  1
  3 10  1  0
  3  4  1  0
  3 22  1  6
  3  6  1  0
  4  8  1  0
  4 14  1  0
  4 27  1  1
  5  6  1  0
  5 15  1  1
  6 18  1  6
  7 13  1  0
  7 15  1  6
  8 17  2  0
  8 21  1  0
  9 12  1  0
 10 11  1  0
 10 26  1  1
 12 29  1  0
 12 30  1  0
 12 13  1  0
 14 19  2  0
 16 23  2  0
 16 28  1  0
 17 20  1  0
 18 21  1  0
 19 20  1  0
 20 24  2  0
 28 31  1  0
M  END
>  <Formula>  (84) 
C24H31FO6

>  <FW>  (84) 
434.4977

>  <DSSTox_CID>  (84) 
1371

>  <NR-AR>  (84) 
1

>  <NR-AR-LBD>  (84) 
0

>  <NR-ER>  (84) 
1

>  <NR-ER-LBD>  (84) 
1

>  <NR-PPAR-gamma>  (84) 
0

>  <NR-AhR>  (84) 
0

>  <SR-MMP>  (84) 
0

>  <SR-p53>  (84) 
0

$$$$
NCGC00164615-01
     RDKit          2D

 32 36  0  0  0  0  0  0  0  0999 V2000
    0.0000   -1.4249    0.0000 O   0  0  0  0  0  0  0  0  0  0  0  0
    0.5608   -0.8182    0.0000 C   0  0  0  0  0  0  0  0  0  0  0  0
    1.3147   -1.1583    0.0000 C   0  0  0  0  0  0  0  0  0  0  0  0
    1.2227   -1.9857    0.0000 O   0  0  0  0  0  0  0  0  0  0  0  0
    0.4321   -2.1420    0.0000 C   0  0  0  0  0  0  0  0  0  0  0  0
    3.4567   -0.7354    0.0000 C   0  0  0  0  0  0  0  0  0  0  0  0
    2.7396   -1.1583    0.0000 N   0  0  0  0  0  0  0  0  0  0  0  0
    2.7396   -1.9857    0.0000 C   0  0  0  0  0  0  0  0  0  0  0  0
    3.4567   -2.3902    0.0000 C   0  0  0  0  0  0  0  0  0  0  0  0
    4.1737   -1.9857    0.0000 N   0  0  0  0  0  0  0  0  0  0  0  0
    4.1737   -1.1583    0.0000 C   0  0  0  0  0  0  0  0  0  0  0  0
    2.0317   -0.7354    0.0000 C   0  0  0  0  0  0  0  0  0  0  0  0
    4.9000   -2.3902    0.0000 C   0  0  0  0  0  0  0  0  0  0  0  0
    4.9000   -3.2360    0.0000 C   0  0  0  0  0  0  0  0  0  0  0  0
    5.6171   -3.6405    0.0000 C   0  0  0  0  0  0  0  0  0  0  0  0
    5.6171   -1.9857    0.0000 C   0  0  0  0  0  0  0  0  0  0  0  0
    4.1737   -3.6405    0.0000 F   0  0  0  0  0  0  0  0  0  0  0  0
    6.3341   -2.3902    0.0000 C   0  0  0  0  0  0  0  0  0  0  0  0
    6.3341   -3.2360    0.0000 C   0  0  0  0  0  0  0  0  0  0  0  0
    7.0512   -3.6405    0.0000 C   0  0  0  0  0  0  0  0  0  0  0  0
    7.7683   -3.2360    0.0000 C   0  0  0  0  0  0  0  0  0  0  0  0
    7.0512   -4.4679    0.0000 O   0  0  0  0  0  0  0  0  0  0  0  0
    8.4761   -3.6405    0.0000 C   0  0  0  0  0  0  0  0  0  0  0  0
    8.4761   -4.4679    0.0000 O   0  0  0  0  0  0  0  0  0  0  0  0
    9.1932   -3.2360    0.0000 O   0  0  0  0  0  0  0  0  0  0  0  0
    7.0512   -1.9857    0.0000 N   0  0  0  0  0  0  0  0  0  0  0  0
    7.7683   -2.3902    0.0000 C   0  0  0  0  0  0  0  0  0  0  0  0
    8.1728   -1.6732    0.0000 S   0  0  0  0  0  0  0  0  0  0  0  0
    7.4557   -1.2686    0.0000 C   0  0  0  0  0  0  0  0  0  0  0  0
    7.2534   -0.4688    0.0000 C   0  0  0  0  0  0  0  0  0  0  0  0
    0.3861    0.0000    0.0000 C   0  0  0  0  0  0  0  0  0  0  0  0
    0.0827   -2.9142    0.0000 O   0  0  0  0  0  0  0  0  0  0  0  0
  1  5  1  0
  1  2  1  0
  2 31  1  0
  2  3  2  0
  3  4  1  0
  3 12  1  0
  4  5  1  0
  5 32  2  0
  6 11  1  0
  6  7  1  0
  7  8  1  0
  7 12  1  0
  8  9  1  0
  9 10  1  0
 10 11  1  0
 10 13  1  0
 13 14  2  0
 13 16  1  0
 14 15  1  0
 14 17  1  0
 15 19  2  0
 16 18  2  0
 18 19  1  0
 18 26  1  0
 19 20  1  0
 20 21  1  0
 20 22  2  0
 21 27  2  0
 21 23  1  0
 23 24  1  0
 23 25  2  0
 26 27  1  0
 26 29  1  0
 27 28  1  0
 28 29  1  0
 29 30  1  0
M  END
>  <Formula>  (85) 
C21H20FN3O6S

>  <FW>  (85) 
461.4634

>  <DSSTox_CID>  (85) 
26480

>  <NR-AR>  (85) 
1

>  <NR-AR-LBD>  (85) 
1

>  <NR-ER>  (85) 
1

>  <NR-ER-LBD>  (85) 
1

>  <NR-PPAR-gamma>  (85) 
0

>  <NR-AhR>  (85) 
0

>  <SR-ATAD5>  (85) 
0

>  <SR-p53>  (85) 
0

$$$$
NCGC00166308-01
     RDKit          2D

 30 32  0  0  0  0  0  0  0  0999 V2000
    0.0000    0.0000    0.0000 C   0  0  0  0  0  0  0  0  0  0  0  0
    0.7136   -0.4179    0.0000 N   0  0  0  0  0  0  0  0  0  0  0  0
    1.4273    0.0000    0.0000 C   0  0  0  0  0  0  0  0  0  0  0  0
    2.1410   -0.4179    0.0000 C   0  0  0  0  0  0  0  0  0  0  0  0
    2.1410   -1.2409    0.0000 N   0  0  0  0  0  0  0  0  0  0  0  0
    1.4273   -1.6588    0.0000 C   0  0  0  0  0  0  0  0  0  0  0  0
    0.7136   -1.2409    0.0000 C   0  0  0  0  0  0  0  0  0  0  0  0
    2.8547   -1.6588    0.0000 C   0  0  0  0  0  0  0  0  0  0  0  0
    3.5812   -1.2409    0.0000 C   0  0  0  0  0  0  0  0  0  0  0  0
    3.5812   -0.4179    0.0000 F   0  0  0  0  0  0  0  0  0  0  0  0
    4.2949   -1.6588    0.0000 C   0  0  0  0  0  0  0  0  0  0  0  0
    4.2949   -2.4818    0.0000 C   0  0  0  0  0  0  0  0  0  0  0  0
    5.0021   -2.8868    0.0000 C   0  0  0  0  0  0  0  0  0  0  0  0
    5.7157   -2.4818    0.0000 O   0  0  0  0  0  0  0  0  0  0  0  0
    5.0021   -3.7098    0.0000 C   0  0  0  0  0  0  0  0  0  0  0  0
    4.2949   -4.1406    0.0000 C   0  0  0  0  0  0  0  0  0  0  0  0
    3.5812   -3.7098    0.0000 N   0  0  0  0  0  0  0  0  0  0  0  0
    2.8547   -4.1406    0.0000 C   0  0  0  0  0  0  0  0  0  0  0  0
    2.8547   -4.9635    0.0000 C   0  0  0  0  0  0  0  0  0  0  0  0
    2.1410   -5.3686    0.0000 C   0  0  0  0  0  0  0  0  0  0  0  0
    1.4273   -4.9635    0.0000 C   0  0  0  0  0  0  0  0  0  0  0  0
    0.7136   -5.3686    0.0000 F   0  0  0  0  0  0  0  0  0  0  0  0
    1.4273   -4.1406    0.0000 C   0  0  0  0  0  0  0  0  0  0  0  0
    2.1410   -3.7098    0.0000 C   0  0  0  0  0  0  0  0  0  0  0  0
    3.5812   -2.8868    0.0000 C   0  0  0  0  0  0  0  0  0  0  0  0
    2.8547   -2.4818    0.0000 C   0  0  0  0  0  0  0  0  0  0  0  0
    5.7157   -4.1406    0.0000 C   0  0  0  0  0  0  0  0  0  0  0  0
    6.4294   -3.7098    0.0000 O   0  0  0  0  0  0  0  0  0  0  0  0
    5.7157   -4.9635    0.0000 O   0  0  0  0  0  0  0  0  0  0  0  0
    1.6845   -2.5782    0.0000 Cl  0  0  0  0  0  0  0  0  0  0  0  0
  1  2  1  0
  2  3  1  0
  2  7  1  0
  3  4  1  0
  4  5  1  0
  5  6  1  0
  5  8  1  0
  6  7  1  0
  8  9  2  0
  8 26  1  0
  9 10  1  0
  9 11  1  0
 11 12  2  0
 12 13  1  0
 12 25  1  0
 13 14  2  0
 13 15  1  0
 15 16  2  0
 15 27  1  0
 16 17  1  0
 17 18  1  0
 17 25  1  0
 18 19  2  0
 18 24  1  0
 19 20  1  0
 20 21  2  0
 21 22  1  0
 21 23  1  0
 23 24  2  0
 25 26  2  0
 27 28  1  0
 27 29  2  0
M  END
>  <Formula>  (86) 
C21H20ClF2N3O3

>  <FW>  (86) 
435.8516 (399.3907+36.4609)

>  <DSSTox_CID>  (86) 
26599

>  <NR-Aromatase>  (86) 
0

>  <NR-AR>  (86) 
1

>  <NR-AR-LBD>  (86) 
0

>  <NR-ER>  (86) 
0

>  <NR-ER-LBD>  (86) 
0

>  <NR-PPAR-gamma>  (86) 
0

>  <NR-AhR>  (86) 
0

>  <SR-ATAD5>  (86) 
0

>  <SR-p53>  (86) 
0

$$$$
NCGC00095256-01
     RDKit          2D

 29 32  0  0  1  0  0  0  0  0999 V2000
    2.1379   -4.1153    0.0000 C   0  0  0  0  0  0  0  0  0  0  0  0
    2.1379   -4.9499    0.0000 C   0  0  0  0  0  0  0  0  0  0  0  0
    1.4317   -3.6980    0.0000 C   0  0  0  0  0  0  0  0  0  0  0  0
    1.4317   -5.3480    0.0000 C   0  0  0  0  0  0  0  0  0  0  0  0
    0.7127   -4.1153    0.0000 C   0  0  0  0  0  0  0  0  0  0  0  0
    0.7127   -4.9499    0.0000 C   0  0  0  0  0  0  0  0  0  0  0  0
    3.5696   -4.1153    0.0000 C   0  0  0  0  0  0  0  0  0  0  0  0
    3.5696   -4.9499    0.0000 C   0  0  0  0  0  0  0  0  0  0  0  0
    2.8505   -3.6980    0.0000 C   0  0  0  0  0  0  0  0  0  0  0  0
    2.8505   -5.3480    0.0000 N   0  0  0  0  0  0  0  0  0  0  0  0
    2.8505   -2.8826    0.0000 C   0  0  0  0  0  0  0  0  0  0  0  0
    3.5696   -2.4782    0.0000 C   0  0  0  0  0  0  0  0  0  0  0  0
    3.5696   -1.6500    0.0000 C   0  0  0  0  0  0  0  0  0  0  0  0
    4.2758   -2.8826    0.0000 N   0  0  0  0  0  0  0  0  0  0  0  0
    4.2758   -1.2455    0.0000 C   0  0  0  0  0  0  0  0  0  0  0  0
    4.9884   -2.4782    0.0000 C   0  0  0  0  0  0  0  0  0  0  0  0
    4.9884   -1.6500    0.0000 C   0  0  0  0  0  0  0  0  0  0  0  0
    5.7075   -1.2455    0.0000 C   0  0  0  0  0  0  0  0  0  0  0  0
    6.4201   -1.6500    0.0000 C   0  0  0  0  0  0  0  0  0  0  0  0
    3.8585   -1.8683    0.0000 C   0  0  0  0  0  0  0  0  0  0  0  0
    4.7188   -2.1186    0.0000 C   0  0  0  0  0  0  0  0  0  0  0  0
    2.1379   -2.4782    0.0000 O   0  0  0  0  0  0  0  0  0  0  0  0
    0.0000   -3.6980    0.0000 O   0  0  0  0  0  0  0  0  0  0  0  0
    0.0000   -2.8762    0.0000 C   0  0  0  0  0  0  0  0  0  0  0  0
    2.1379   -1.6500    0.0000 C   0  0  0  0  0  0  0  0  0  0  0  0
    2.8505   -1.2327    0.0000 O   0  0  0  0  0  0  0  0  0  0  0  0
    1.4188   -1.2455    0.0000 O   0  0  0  0  0  0  0  0  0  0  0  0
    1.4188   -0.4173    0.0000 C   0  0  0  0  0  0  0  0  0  0  0  0
    2.1250    0.0000    0.0000 C   0  0  0  0  0  0  0  0  0  0  0  0
  1  3  2  0
  1  9  1  0
  1  2  1  0
  2  4  2  0
  2 10  1  0
  3  5  1  0
  4  6  1  0
  5  6  2  0
  5 23  1  0
  7  8  1  0
  7  9  2  0
  8 10  2  0
  9 11  1  0
 11 12  1  0
 11 22  1  1
 12 13  1  6
 12 14  1  0
 15 13  1  1
 14 16  1  1
 14 21  1  0
 15 17  1  0
 15 20  1  0
 16 17  1  0
 17 18  1  1
 18 19  2  0
 20 21  1  0
 22 25  1  0
 23 24  1  0
 25 26  2  0
 25 27  1  0
 27 28  1  0
 28 29  1  0
M  END
>  <Formula>  (87) 
C23H28N2O4

>  <FW>  (87) 
396.4794

>  <DSSTox_CID>  (87) 
25965

>  <NR-Aromatase>  (87) 
0

>  <NR-AR>  (87) 
1

>  <NR-AR-LBD>  (87) 
1

>  <NR-ER>  (87) 
1

>  <NR-ER-LBD>  (87) 
0

>  <NR-PPAR-gamma>  (87) 
0

>  <SR-ATAD5>  (87) 
0

>  <SR-MMP>  (87) 
0

>  <SR-p53>  (87) 
0

$$$$
NCGC00163165-01
     RDKit          2D

 24 27  0  0  1  0  0  0  0  0999 V2000
    2.1264   -2.5390    0.0000 C   0  0  0  0  0  0  0  0  0  0  0  0
    2.1264   -4.1890    0.0000 C   0  0  0  0  0  0  0  0  0  0  0  0
    2.8178   -2.9573    0.0000 C   0  0  0  0  0  0  0  0  0  0  0  0
    2.1264   -1.7198    0.0000 C   0  0  0  0  0  0  0  0  0  0  0  0
    1.4002   -2.9573    0.0000 C   0  0  0  0  0  0  0  0  0  0  0  0
    2.8178   -1.3247    0.0000 C   0  0  0  0  0  0  0  0  0  0  0  0
    3.5325   -2.5390    0.0000 N   0  0  0  0  0  0  0  0  0  0  0  0
    1.4002   -3.7823    0.0000 C   0  0  0  0  0  0  0  0  0  0  0  0
    2.7946   -0.4358    0.0000 C   0  0  0  0  0  0  0  0  0  0  0  0
    2.8178   -3.7823    0.0000 C   0  0  0  0  0  0  0  0  0  0  0  0
    2.1264   -5.0140    0.0000 C   0  0  0  0  0  0  0  0  0  0  0  0
    0.7088   -5.0140    0.0000 N   0  0  0  0  0  0  0  0  0  0  0  0
    3.5325   -1.7198    0.0000 C   0  0  0  0  0  0  0  0  0  0  0  0
    3.5499    0.0000    0.0000 N   0  0  0  0  0  0  0  0  0  0  0  0
    0.7088   -4.1890    0.0000 C   0  0  0  0  0  0  0  0  0  0  0  0
    2.0393    0.0000    0.0000 O   0  0  0  0  0  0  0  0  0  0  0  0
    0.7088   -2.5390    0.0000 C   0  0  0  0  0  0  0  0  0  0  0  0
    4.2587   -2.9631    0.0000 C   0  0  0  0  0  0  0  0  0  0  0  0
    4.3052   -0.4358    0.0000 C   0  0  0  0  0  0  0  0  0  0  0  0
    5.8100   -0.4358    0.0000 O   0  0  0  0  0  0  0  0  0  0  0  0
    0.0000   -2.9573    0.0000 C   0  0  0  0  0  0  0  0  0  0  0  0
    0.0000   -3.7823    0.0000 C   0  0  0  0  0  0  0  0  0  0  0  0
    5.0547    0.0000    0.0000 C   0  0  0  0  0  0  0  0  0  0  0  0
    4.3052   -1.3130    0.0000 C   0  0  0  0  0  0  0  0  0  0  0  0
  1  3  1  0
  1  4  2  0
  1  5  1  0
  2  8  1  0
  2 11  2  0
  2 10  1  0
  3  7  1  0
  3 10  1  6
  4  6  1  0
  5  8  2  0
  5 17  1  0
  6  9  1  1
  6 13  1  0
  7 18  1  0
  7 13  1  0
  8 15  1  0
  9 14  1  0
  9 16  2  0
 11 12  1  0
 12 15  1  0
 14 19  1  0
 15 22  2  0
 17 21  2  0
 19 23  1  0
 19 24  1  6
 20 23  1  0
 21 22  1  0
M  END
>  <Formula>  (88) 
C19H23N3O2

>  <FW>  (88) 
325.4048

>  <DSSTox_CID>  (88) 
26323

>  <NR-Aromatase>  (88) 
0

>  <NR-AR>  (88) 
1

>  <NR-AR-LBD>  (88) 
1

>  <NR-ER>  (88) 
0

>  <NR-ER-LBD>  (88) 
0

>  <NR-PPAR-gamma>  (88) 
0

>  <NR-AhR>  (88) 
0

>  <SR-ATAD5>  (88) 
0

>  <SR-p53>  (88) 
0

$$$$
NCGC00159333-02
     RDKit          2D

 28 31  0  0  1  0  0  0  0  0999 V2000
    4.2821   -2.4694    0.0000 C   0  0  0  0  0  0  0  0  0  0  0  0
    4.2821   -3.2973    0.0000 C   0  0  0  0  0  0  0  0  0  0  0  0
    4.9958   -3.7111    0.0000 C   0  0  0  0  0  0  0  0  0  0  0  0
    5.7095   -3.2973    0.0000 C   0  0  0  0  0  0  0  0  0  0  0  0
    5.7095   -2.4694    0.0000 C   0  0  0  0  0  0  0  0  0  0  0  0
    4.9958   -2.0625    0.0000 N   0  0  0  0  0  0  0  0  0  0  0  0
    4.9958   -1.2347    0.0000 C   0  0  0  0  0  0  0  0  0  0  0  0
    4.5819   -0.5210    0.0000 C   0  0  0  0  0  0  0  0  0  0  0  0
    5.4098   -0.5210    0.0000 C   0  0  0  0  0  0  0  0  0  0  0  0
    6.4231   -3.7111    0.0000 C   0  0  0  0  0  0  0  0  0  0  0  0
    7.1369   -3.2973    0.0000 O   0  0  0  0  0  0  0  0  0  0  0  0
    6.4231   -4.5319    0.0000 O   0  0  0  0  0  0  0  0  0  0  0  0
    4.9958   -4.5319    0.0000 O   0  0  0  0  0  0  0  0  0  0  0  0
    3.5684   -3.7111    0.0000 C   0  0  0  0  0  0  0  0  0  0  0  0
    2.8547   -3.2973    0.0000 C   0  0  0  0  0  0  0  0  0  0  0  0
    2.8547   -2.4694    0.0000 C   0  0  0  0  0  0  0  0  0  0  0  0
    3.5684   -2.0625    0.0000 C   0  0  0  0  0  0  0  0  0  0  0  0
    3.5684   -1.2347    0.0000 F   0  0  0  0  0  0  0  0  0  0  0  0
    2.1411   -2.0625    0.0000 N   0  0  0  0  0  0  0  0  0  0  0  0
    1.4274   -2.4694    0.0000 C   0  0  0  0  0  0  0  0  0  0  0  0
    0.7137   -2.0625    0.0000 C   0  0  0  0  0  0  0  0  0  0  0  0
    0.7137   -1.2347    0.0000 N   0  0  0  0  0  0  0  0  0  0  0  0
    1.4274   -0.8208    0.0000 C   0  0  0  0  0  0  0  0  0  0  0  0
    2.1411   -1.2347    0.0000 C   0  0  0  0  0  0  0  0  0  0  0  0
    1.4274    0.0000    0.0000 C   0  0  0  0  0  0  0  0  0  0  0  0
    0.0000   -2.4694    0.0000 C   0  0  0  0  0  0  0  0  0  0  0  0
    2.1411   -3.7111    0.0000 F   0  0  0  0  0  0  0  0  0  0  0  0
    3.5684   -4.5319    0.0000 N   0  0  0  0  0  0  0  0  0  0  0  0
  1  2  2  0
  1  6  1  0
  1 17  1  0
  2  3  1  0
  2 14  1  0
  3  4  1  0
  3 13  2  0
  4  5  2  0
  4 10  1  0
  5  6  1  0
  6  7  1  0
  7  8  1  0
  7  9  1  0
  8  9  1  0
 10 11  1  0
 10 12  2  0
 14 15  2  0
 14 28  1  0
 15 16  1  0
 15 27  1  0
 16 17  2  0
 16 19  1  0
 17 18  1  0
 19 20  1  0
 19 24  1  0
 20 21  1  0
 21 22  1  0
 21 26  1  6
 22 23  1  0
 23 24  1  0
 23 25  1  6
M  END
>  <Formula>  (89) 
C19H22F2N4O3

>  <FW>  (89) 
392.3998

>  <DSSTox_CID>  (89) 
3590

>  <NR-Aromatase>  (89) 
0

>  <NR-AR>  (89) 
1

>  <NR-AR-LBD>  (89) 
0

>  <NR-ER>  (89) 
0

>  <NR-ER-LBD>  (89) 
0

>  <NR-PPAR-gamma>  (89) 
0

>  <NR-AhR>  (89) 
0

>  <SR-ATAD5>  (89) 
0

>  <SR-MMP>  (89) 
0

>  <SR-p53>  (89) 
0

$$$$
NCGC00095714-01
     RDKit          2D

 34 40  0  0  1  0  0  0  0  0999 V2000
    3.7126   -3.3079    0.0000 C   0  0  0  0  0  0  0  0  0  0  0  0
    4.4282   -3.7244    0.0000 C   0  0  0  0  0  0  0  0  0  0  0  0
    3.0029   -3.7361    0.0000 C   0  0  0  0  0  0  0  0  0  0  0  0
    3.7126   -2.4986    0.0000 C   0  0  0  0  0  0  0  0  0  0  0  0
    3.7126   -4.1232    0.0000 O   0  0  0  0  0  0  0  0  0  0  0  0
    1.5777   -3.7537    0.0000 C   0  0  0  0  0  0  0  0  0  0  0  0
    2.2815   -3.3079    0.0000 C   0  0  0  0  0  0  0  0  0  0  0  0
    5.1320   -3.3079    0.0000 C   0  0  0  0  0  0  0  0  0  0  0  0
    1.5777   -4.5396    0.0000 C   0  0  0  0  0  0  0  0  0  0  0  0
    4.4282   -2.0880    0.0000 C   0  0  0  0  0  0  0  0  0  0  0  0
    3.0029   -4.5279    0.0000 C   0  0  0  0  0  0  0  0  0  0  0  0
    5.1320   -2.5044    0.0000 O   0  0  0  0  0  0  0  0  0  0  0  0
    0.1584   -3.7361    0.0000 C   0  0  0  0  0  0  0  0  0  0  0  0
    0.8739   -4.9619    0.0000 C   0  0  0  0  0  0  0  0  0  0  0  0
    0.1584   -4.5279    0.0000 O   0  0  0  0  0  0  0  0  0  0  0  0
    2.2815   -4.9619    0.0000 C   0  0  0  0  0  0  0  0  0  0  0  0
    4.4282   -1.2669    0.0000 C   0  0  0  0  0  0  0  0  0  0  0  0
    0.0117   -3.0029    0.0000 C   0  0  0  0  0  0  0  0  0  0  0  0
    2.9795   -2.0880    0.0000 C   0  0  0  0  0  0  0  0  0  0  0  0
    1.7067   -2.9795    0.0000 C   0  0  0  0  0  0  0  0  0  0  0  0
    0.4282   -2.2463    0.0000 C   0  0  0  0  0  0  0  0  0  0  0  0
    2.2815   -2.4986    0.0000 C   0  0  0  0  0  0  0  0  0  0  0  0
    1.2669   -2.2288    0.0000 O   0  0  0  0  0  0  0  0  0  0  0  0
    5.8652   -3.7068    0.0000 O   0  0  0  0  0  0  0  0  0  0  0  0
    3.7361   -0.7448    0.0000 C   0  0  0  0  0  0  0  0  0  0  0  0
    3.7361   -4.9326    0.0000 O   0  0  0  0  0  0  0  0  0  0  0  0
    5.0733   -0.7918    0.0000 C   0  0  0  0  0  0  0  0  0  0  0  0
    4.0000    0.0000    0.0000 O   0  0  0  0  0  0  0  0  0  0  0  0
    4.8035    0.0000    0.0000 C   0  0  0  0  0  0  0  0  0  0  0  0
    0.0000   -1.5132    0.0000 O   0  0  0  0  0  0  0  0  0  0  0  0
    3.0029   -2.9032    0.0000 C   0  0  0  0  0  0  0  0  0  0  0  0
    3.7126   -1.6657    0.0000 C   0  0  0  0  0  0  0  0  0  0  0  0
    0.1877   -5.4663    0.0000 C   0  0  0  0  0  0  0  0  0  0  0  0
    0.8739   -5.7654    0.0000 C   0  0  0  0  0  0  0  0  0  0  0  0
  1  2  1  0
  1  3  1  0
  1  4  1  0
  1  5  1  1
  2  8  1  0
  2  5  1  1
  3  7  1  0
  3 11  1  0
  3 31  1  1
  4 10  1  0
  4 19  1  0
  4 32  1  6
  6  7  1  0
  6 13  1  0
  6 20  1  1
  6  9  1  0
  7 22  1  1
  8 24  2  0
  8 12  1  0
  9 16  1  1
  9 14  1  0
 10 12  1  6
 10 17  1  0
 11 16  1  0
 11 26  2  0
 13 15  1  0
 13 18  1  1
 14 33  1  0
 14 34  1  0
 14 15  1  0
 17 25  2  0
 17 27  1  0
 18 21  1  0
 19 22  1  0
 20 23  1  0
 21 23  1  0
 21 30  2  0
 25 28  1  0
 27 29  2  0
 28 29  1  0
M  END
>  <Formula>  (90) 
C26H30O8

>  <FW>  (90) 
470.5116

>  <DSSTox_CID>  (90) 
25985

>  <NR-AR>  (90) 
1

>  <NR-AR-LBD>  (90) 
0

>  <NR-ER>  (90) 
1

>  <NR-ER-LBD>  (90) 
0

>  <NR-PPAR-gamma>  (90) 
0

>  <NR-AhR>  (90) 
0

>  <SR-ATAD5>  (90) 
0

>  <SR-MMP>  (90) 
0

>  <SR-p53>  (90) 
0

$$$$
NCGC00167470-01
     RDKit          2D

 36 39  0  0  1  0  0  0  0  0999 V2000
    9.1308   -2.2132    0.0000 N   0  0  0  0  0  0  0  0  0  0  0  0
    1.5527   -0.8227    0.0000 N   0  0  0  0  0  0  0  0  0  0  0  0
    2.8968   -0.8227    0.0000 N   0  0  0  0  0  0  0  0  0  0  0  0
    2.2248   -1.2978    0.0000 C   0  0  0  0  0  0  0  0  0  0  0  0
    9.1308   -1.1935    0.0000 C   0  0  0  0  0  0  0  0  0  0  0  0
    8.1111   -2.2132    0.0000 C   0  0  0  0  0  0  0  0  0  0  0  0
    8.1111   -1.1935    0.0000 C   0  0  0  0  0  0  0  0  0  0  0  0
    0.7879   -1.0776    0.0000 S   0  0  0  0  0  0  0  0  0  0  0  0
   10.1041   -2.5260    0.0000 C   0  0  0  0  0  0  0  0  0  0  0  0
    3.7891   -1.2282    0.0000 C   0  0  0  0  0  0  0  0  0  0  0  0
   10.1041   -0.8806    0.0000 S   0  0  0  0  0  0  0  0  0  0  0  0
   10.6835   -1.7033    0.0000 C   0  0  0  0  0  0  0  0  0  0  0  0
    6.6164   -1.2166    0.0000 N   0  0  0  0  0  0  0  0  0  0  0  0
    4.4958   -0.8227    0.0000 N   0  0  0  0  0  0  0  0  0  0  0  0
    5.9095   -0.8227    0.0000 C   0  0  0  0  0  0  0  0  0  0  0  0
    1.8076   -0.0348    0.0000 C   0  0  0  0  0  0  0  0  0  0  0  0
    5.2143   -1.2282    0.0000 C   0  0  0  0  0  0  0  0  0  0  0  0
    2.6303   -0.0348    0.0000 C   0  0  0  0  0  0  0  0  0  0  0  0
   10.4053   -3.5110    0.0000 C   0  0  0  0  0  0  0  0  0  0  0  0
    2.2248   -2.1204    0.0000 O   0  0  0  0  0  0  0  0  0  0  0  0
    7.3695   -2.9316    0.0000 O   0  0  0  0  0  0  0  0  0  0  0  0
    0.5215   -0.3013    0.0000 O   0  0  0  0  0  0  0  0  0  0  0  0
    1.0428   -1.8424    0.0000 O   0  0  0  0  0  0  0  0  0  0  0  0
    3.7891   -2.0510    0.0000 O   0  0  0  0  0  0  0  0  0  0  0  0
    5.9095    0.0000    0.0000 O   0  0  0  0  0  0  0  0  0  0  0  0
   11.4135   -3.7195    0.0000 O   0  0  0  0  0  0  0  0  0  0  0  0
    5.2143   -2.0510    0.0000 C   0  0  0  0  0  0  0  0  0  0  0  0
    0.0000   -1.3325    0.0000 C   0  0  0  0  0  0  0  0  0  0  0  0
    9.7101   -4.2641    0.0000 O   0  0  0  0  0  0  0  0  0  0  0  0
   11.5873   -1.1935    0.0000 C   0  0  0  0  0  0  0  0  0  0  0  0
   11.5873   -2.2132    0.0000 C   0  0  0  0  0  0  0  0  0  0  0  0
    5.9095   -2.4565    0.0000 C   0  0  0  0  0  0  0  0  0  0  0  0
    4.4958   -2.4565    0.0000 C   0  0  0  0  0  0  0  0  0  0  0  0
    4.4958   -3.2792    0.0000 C   0  0  0  0  0  0  0  0  0  0  0  0
    5.9095   -3.2792    0.0000 C   0  0  0  0  0  0  0  0  0  0  0  0
    5.2143   -3.6847    0.0000 C   0  0  0  0  0  0  0  0  0  0  0  0
  1  5  1  0
  1  6  1  0
  1  9  1  0
  2  4  1  0
  2  8  1  0
  2 16  1  0
  3 10  1  0
  3  4  1  0
  3 18  1  0
  4 20  2  0
  5 11  1  1
  5  7  1  0
  6  7  1  0
  6 21  2  0
  7 13  1  1
  8 22  2  0
  8 23  2  0
  8 28  1  0
  9 12  1  0
  9 19  1  6
 10 14  1  0
 10 24  2  0
 11 12  1  0
 12 30  1  0
 12 31  1  0
 13 15  1  0
 17 14  1  1
 15 17  1  0
 15 25  2  0
 16 18  1  0
 17 27  1  0
 19 26  2  0
 19 29  1  0
 27 32  2  0
 27 33  1  0
 32 35  1  0
 33 34  2  0
 34 36  1  0
 35 36  2  0
M  END
>  <Formula>  (91) 
C21H25N5O8S2

>  <FW>  (91) 
539.5819

>  <DSSTox_CID>  (91) 
3316

>  <NR-AR>  (91) 
1

>  <NR-AR-LBD>  (91) 
0

>  <NR-ER>  (91) 
1

>  <NR-ER-LBD>  (91) 
0

>  <NR-PPAR-gamma>  (91) 
0

>  <NR-AhR>  (91) 
0

>  <SR-ATAD5>  (91) 
0

>  <SR-MMP>  (91) 
0

>  <SR-p53>  (91) 
0

$$$$
NCGC00181797-01
     RDKit          2D

102110  0  0  1  0  0  0  0  0999 V2000
    1.4513   -6.4426    0.0000 C   0  0  0  0  0  0  0  0  0  0  0  0
    9.9691   -6.4426    0.0000 C   0  0  0  0  0  0  0  0  0  0  0  0
    2.1566   -6.8766    0.0000 N   0  0  0  0  0  0  0  0  0  0  0  0
    5.0591   -2.0345    0.0000 C   0  0  0  0  0  0  0  0  0  0  0  0
    5.7645   -2.4414    0.0000 C   0  0  0  0  0  0  0  0  0  0  0  0
    0.7189   -7.6769    0.0000 N   0  0  0  0  0  0  0  0  0  0  0  0
    0.7189   -6.8766    0.0000 C   0  0  0  0  0  0  0  0  0  0  0  0
    4.2860   -6.4426    0.0000 N   0  0  0  0  0  0  0  0  0  0  0  0
    6.4426   -6.8766    0.0000 N   0  0  0  0  0  0  0  0  0  0  0  0
    9.2638   -6.8766    0.0000 C   0  0  0  0  0  0  0  0  0  0  0  0
    2.1566   -9.3181    0.0000 C   0  0  0  0  0  0  0  0  0  0  0  0
    2.8754   -6.4426    0.0000 C   0  0  0  0  0  0  0  0  0  0  0  0
    1.4513   -8.9247    0.0000 C   0  0  0  0  0  0  0  0  0  0  0  0
    5.0185   -6.8766    0.0000 C   0  0  0  0  0  0  0  0  0  0  0  0
    2.8754   -8.9247    0.0000 C   0  0  0  0  0  0  0  0  0  0  0  0
    5.7102   -4.0555    0.0000 C   0  0  0  0  0  0  0  0  0  0  0  0
    1.4513   -8.0974    0.0000 C   0  0  0  0  0  0  0  0  0  0  0  0
    5.0591   -1.2343    0.0000 C   0  0  0  0  0  0  0  0  0  0  0  0
    8.5314   -6.4426    0.0000 N   0  0  0  0  0  0  0  0  0  0  0  0
    5.7102   -6.4426    0.0000 C   0  0  0  0  0  0  0  0  0  0  0  0
   10.6880   -6.8766    0.0000 N   0  0  0  0  0  0  0  0  0  0  0  0
    6.4426   -4.4352    0.0000 C   0  0  0  0  0  0  0  0  0  0  0  0
    5.0185   -4.4352    0.0000 C   0  0  0  0  0  0  0  0  0  0  0  0
    7.1072   -6.4426    0.0000 C   0  0  0  0  0  0  0  0  0  0  0  0
    3.6079   -6.8766    0.0000 C   0  0  0  0  0  0  0  0  0  0  0  0
    6.5240   -2.0345    0.0000 O   0  0  0  0  0  0  0  0  0  0  0  0
    5.7645   -3.2281    0.0000 O   0  0  0  0  0  0  0  0  0  0  0  0
    2.9025   -0.8274    0.0000 C   0  0  0  0  0  0  0  0  0  0  0  0
    5.7102   -5.6423    0.0000 C   0  0  0  0  0  0  0  0  0  0  0  0
    5.7645   -0.8274    0.0000 C   0  0  0  0  0  0  0  0  0  0  0  0
    7.1072   -4.0555    0.0000 O   0  0  0  0  0  0  0  0  0  0  0  0
    4.2860   -4.0555    0.0000 O   0  0  0  0  0  0  0  0  0  0  0  0
    7.8261   -6.8766    0.0000 C   0  0  0  0  0  0  0  0  0  0  0  0
    2.1566  -10.1318    0.0000 C   0  0  0  0  0  0  0  0  0  0  0  0
    3.5807   -2.0617    0.0000 C   0  0  0  0  0  0  0  0  0  0  0  0
   11.4068   -6.4426    0.0000 C   0  0  0  0  0  0  0  0  0  0  0  0
    6.5240   -1.2614    0.0000 C   0  0  0  0  0  0  0  0  0  0  0  0
    1.4513   -5.6423    0.0000 C   0  0  0  0  0  0  0  0  0  0  0  0
    9.9691   -5.6423    0.0000 C   0  0  0  0  0  0  0  0  0  0  0  0
    3.5807   -1.2072    0.0000 C   0  0  0  0  0  0  0  0  0  0  0  0
    2.8754   -8.0974    0.0000 C   0  0  0  0  0  0  0  0  0  0  0  0
    2.9025   -2.4685    0.0000 O   0  0  0  0  0  0  0  0  0  0  0  0
    3.6079   -7.6769    0.0000 C   0  0  0  0  0  0  0  0  0  0  0  0
    2.1566   -1.2343    0.0000 C   0  0  0  0  0  0  0  0  0  0  0  0
    7.8261   -7.6769    0.0000 C   0  0  0  0  0  0  0  0  0  0  0  0
    2.1566   -5.2762    0.0000 C   0  0  0  0  0  0  0  0  0  0  0  0
    9.2638   -5.2762    0.0000 C   0  0  0  0  0  0  0  0  0  0  0  0
    4.3132   -2.4685    0.0000 O   0  0  0  0  0  0  0  0  0  0  0  0
    2.0345   -7.6769    0.0000 C   0  0  0  0  0  0  0  0  0  0  0  0
    5.0185   -5.2762    0.0000 C   0  0  0  0  0  0  0  0  0  0  0  0
    6.4426   -5.2762    0.0000 C   0  0  0  0  0  0  0  0  0  0  0  0
    3.6079   -4.4352    0.0000 C   0  0  0  0  0  0  0  0  0  0  0  0
    7.8261   -4.4352    0.0000 C   0  0  0  0  0  0  0  0  0  0  0  0
    2.1566   -2.0345    0.0000 C   0  0  0  0  0  0  0  0  0  0  0  0
    1.4513  -10.5659    0.0000 C   0  0  0  0  0  0  0  0  0  0  0  0
    3.6079   -5.2762    0.0000 C   0  0  0  0  0  0  0  0  0  0  0  0
    8.5314   -4.0555    0.0000 C   0  0  0  0  0  0  0  0  0  0  0  0
    7.1072   -8.0974    0.0000 C   0  0  0  0  0  0  0  0  0  0  0  0
    2.8754   -5.6423    0.0000 C   0  0  0  0  0  0  0  0  0  0  0  0
    9.2638   -4.4352    0.0000 C   0  0  0  0  0  0  0  0  0  0  0  0
    3.6079   -9.3181    0.0000 C   0  0  0  0  0  0  0  0  0  0  0  0
    0.7189   -9.3181    0.0000 C   0  0  0  0  0  0  0  0  0  0  0  0
   12.1121   -6.8766    0.0000 C   0  0  0  0  0  0  0  0  0  0  0  0
    0.0000   -6.4426    0.0000 O   0  0  0  0  0  0  0  0  0  0  0  0
    9.2638   -7.6769    0.0000 O   0  0  0  0  0  0  0  0  0  0  0  0
    2.8754   -5.9272    0.0000 O   0  0  0  0  0  0  0  0  0  0  0  0
    5.0185   -7.6769    0.0000 O   0  0  0  0  0  0  0  0  0  0  0  0
    0.7189  -10.1318    0.0000 C   0  0  0  0  0  0  0  0  0  0  0  0
    7.1072   -5.6423    0.0000 O   0  0  0  0  0  0  0  0  0  0  0  0
   11.4068   -5.6423    0.0000 O   0  0  0  0  0  0  0  0  0  0  0  0
    4.2860   -8.0974    0.0000 C   0  0  0  0  0  0  0  0  0  0  0  0
    8.5314   -5.6423    0.0000 C   0  0  0  0  0  0  0  0  0  0  0  0
    2.1566   -4.4352    0.0000 C   0  0  0  0  0  0  0  0  0  0  0  0
    2.6584   -7.8261    0.0000 O   0  0  0  0  0  0  0  0  0  0  0  0
    2.8754   -4.0555    0.0000 C   0  0  0  0  0  0  0  0  0  0  0  0
    7.8261   -5.2762    0.0000 C   0  0  0  0  0  0  0  0  0  0  0  0
    6.4426   -7.6769    0.0000 O   0  0  0  0  0  0  0  0  0  0  0  0
   12.1121   -7.6769    0.0000 C   0  0  0  0  0  0  0  0  0  0  0  0
    3.4587   -0.2170    0.0000 N   0  0  0  0  0  0  0  0  0  0  0  0
    4.2860   -8.9247    0.0000 C   0  0  0  0  0  0  0  0  0  0  0  0
    4.3132   -0.8274    0.0000 O   0  0  0  0  0  0  0  0  0  0  0  0
    5.7645    0.0000    0.0000 O   0  0  0  0  0  0  0  0  0  0  0  0
    2.8754  -10.5659    0.0000 O   0  0  0  0  0  0  0  0  0  0  0  0
   12.8445   -6.4426    0.0000 N   0  0  0  0  0  0  0  0  0  0  0  0
    7.1072   -8.9247    0.0000 N   0  0  0  0  0  0  0  0  0  0  0  0
    1.3699   -0.8274    0.0000 O   0  0  0  0  0  0  0  0  0  0  0  0
    8.5314   -3.1874    0.0000 Cl  0  0  0  0  0  0  0  0  0  0  0  0
    0.7189   -5.2762    0.0000 O   0  0  0  0  0  0  0  0  0  0  0  0
    4.2860   -5.6423    0.0000 Cl  0  0  0  0  0  0  0  0  0  0  0  0
   10.6880   -5.2762    0.0000 O   0  0  0  0  0  0  0  0  0  0  0  0
    1.6276   -7.1344    0.0000 O   0  0  0  0  0  0  0  0  0  0  0  0
    3.6079  -10.1454    0.0000 O   0  0  0  0  0  0  0  0  0  0  0  0
    7.2564   -0.8681    0.0000 C   0  0  0  0  0  0  0  0  0  0  0  0
    0.0000  -10.5659    0.0000 O   0  0  0  0  0  0  0  0  0  0  0  0
    2.2786   -0.2306    0.0000 C   0  0  0  0  0  0  0  0  0  0  0  0
    7.9211   -1.3157    0.0000 O   0  0  0  0  0  0  0  0  0  0  0  0
    1.3699   -2.4414    0.0000 C   0  0  0  0  0  0  0  0  0  0  0  0
   11.4068   -8.0974    0.0000 C   0  0  0  0  0  0  0  0  0  0  0  0
   13.5634   -6.8766    0.0000 C   0  0  0  0  0  0  0  0  0  0  0  0
   10.6880   -7.6769    0.0000 C   0  0  0  0  0  0  0  0  0  0  0  0
   11.4068   -8.9247    0.0000 C   0  0  0  0  0  0  0  0  0  0  0  0
    8.2330  -10.5387    0.0000 Cl  0  0  0  0  0  0  0  0  0  0  0  0
  1  3  1  0
  1  7  1  6
  1 38  1  0
  2 10  1  0
  2 21  1  1
  2 39  1  0
  3 12  1  0
  4  5  1  0
  4 18  1  0
  4 48  1  6
  5 27  1  1
  5 26  1  0
  6  7  1  0
  6 17  1  0
  7 64  2  0
 25  8  1  6
  8 14  1  0
 20  9  1  1
  9 24  1  0
 10 19  1  0
 10 65  2  0
 11 13  1  0
 11 15  1  0
 11 34  2  0
 25 12  1  0
 12 66  2  0
 13 17  1  0
 13 62  2  0
 14 20  1  0
 14 67  2  0
 15 61  2  0
 15 41  1  0
 16 23  1  0
 16 22  2  0
 16 27  1  0
 17 49  1  1
 18 81  1  1
 18 30  1  0
 19 33  1  0
 20 29  1  0
 21 36  1  0
 22 31  1  0
 22 51  1  0
 23 32  1  0
 23 50  2  0
 24 33  1  0
 24 69  2  0
 25 43  1  0
 26 37  1  0
 28 40  1  0
 28 79  1  0
 28 95  1  6
 28 44  1  0
 29 51  2  0
 29 50  1  0
 30 37  1  0
 30 82  1  6
 31 53  1  0
 32 52  1  0
 33 45  1  1
 34 83  1  0
 34 55  1  0
 35 48  1  6
 35 40  1  0
 35 42  1  0
 36 63  1  0
 36 70  2  0
 37 93  1  1
 38 46  1  0
 38 88  1  6
 39 90  1  1
 39 47  1  0
 41 43  2  0
 42 54  1  0
 43 71  1  0
 44 54  1  0
 44 86  1  0
 45 58  1  0
 46 59  1  0
 46 73  2  0
 47 72  2  0
 47 60  1  0
 49 74  2  0
 49 91  1  0
 52 75  2  0
 52 56  1  0
 53 57  1  0
 53 76  2  0
 54 97  1  1
 55 68  2  0
 56 59  2  0
 56 89  1  0
 57 60  2  0
 57 87  1  0
 58 77  2  0
 58 85  1  0
 61 92  1  0
 61 80  1  0
 62 68  1  0
 63 78  1  6
 63 84  1  0
 68 94  1  0
 71 80  2  0
 72 76  1  0
 73 75  1  0
 78 98  1  0
 84 99  1  0
 93 96  1  0
 98100  1  0
 98101  1  0
M  END
>  <Formula>  (92) 
C66H76Cl3N9O24

>  <FW>  (92) 
1485.7145 (1449.2536+36.4609)

>  <DSSTox_CID>  (92) 
25354

>  <NR-AR>  (92) 
1

>  <NR-AR-LBD>  (92) 
0

>  <NR-ER>  (92) 
0

>  <NR-ER-LBD>  (92) 
0

>  <NR-PPAR-gamma>  (92) 
0

>  <NR-AhR>  (92) 
0

>  <SR-ATAD5>  (92) 
0

>  <SR-MMP>  (92) 
0

>  <SR-p53>  (92) 
0

$$$$
NCGC00164583-01
     RDKit          2D

 22 24  0  0  1  0  0  0  0  0999 V2000
    6.3567   -2.9537    0.0000 O   0  0  0  0  0  0  0  0  0  0  0  0
    6.5703   -2.1582    0.0000 C   0  0  0  0  0  0  0  0  0  0  0  0
    7.3659   -1.9446    0.0000 O   0  0  0  0  0  0  0  0  0  0  0  0
    5.9590   -1.6058    0.0000 C   0  0  0  0  0  0  0  0  0  0  0  0
    5.1487   -1.7752    0.0000 N   0  0  0  0  0  0  0  0  0  0  0  0
    4.4343   -2.1877    0.0000 C   0  0  0  0  0  0  0  0  0  0  0  0
    4.2206   -2.9832    0.0000 O   0  0  0  0  0  0  0  0  0  0  0  0
    4.0218   -1.4732    0.0000 C   0  0  0  0  0  0  0  0  0  0  0  0
    3.2263   -1.2596    0.0000 N   0  0  0  0  0  0  0  0  0  0  0  0
    2.6443   -1.8414    0.0000 C   0  0  0  0  0  0  0  0  0  0  0  0
    1.8488   -1.6278    0.0000 N   0  0  0  0  0  0  0  0  0  0  0  0
    1.3111   -2.2392    0.0000 C   0  0  0  0  0  0  0  0  0  0  0  0
    0.4861   -2.2392    0.0000 C   0  0  0  0  0  0  0  0  0  0  0  0
    0.0000   -1.5616    0.0000 C   0  0  0  0  0  0  0  0  0  0  0  0
    0.2136   -0.7661    0.0000 C   0  0  0  0  0  0  0  0  0  0  0  0
    0.9797   -0.4199    0.0000 C   0  0  0  0  0  0  0  0  0  0  0  0
    1.6868   -0.8323    0.0000 C   0  0  0  0  0  0  0  0  0  0  0  0
    4.7363   -1.0607    0.0000 C   0  0  0  0  0  0  0  0  0  0  0  0
    5.2887   -0.4493    0.0000 S   0  0  0  0  0  0  0  0  0  0  0  0
    6.0400   -0.7808    0.0000 C   0  0  0  0  0  0  0  0  0  0  0  0
    6.2978    0.0000    0.0000 C   0  0  0  0  0  0  0  0  0  0  0  0
    6.8503   -0.9575    0.0000 C   0  0  0  0  0  0  0  0  0  0  0  0
  1  2  2  0
  2  3  1  0
  4  2  1  6
  4  5  1  0
  4 20  1  0
  5  6  1  0
  5 18  1  0
  6  7  2  0
  6  8  1  0
  8  9  1  1
  8 18  1  0
  9 10  2  0
 10 11  1  0
 11 12  1  0
 11 17  1  0
 12 13  1  0
 13 14  1  0
 14 15  1  0
 15 16  1  0
 16 17  1  0
 18 19  1  1
 19 20  1  0
 20 21  1  0
 20 22  1  0
M  END
>  <Formula>  (93) 
C15H23N3O3S

>  <FW>  (93) 
325.4264

>  <DSSTox_CID>  (93) 
2584

>  <NR-AR>  (93) 
1

>  <NR-AR-LBD>  (93) 
0

>  <NR-ER>  (93) 
0

>  <NR-ER-LBD>  (93) 
0

>  <NR-PPAR-gamma>  (93) 
0

>  <NR-AhR>  (93) 
0

>  <SR-ATAD5>  (93) 
0

>  <SR-MMP>  (93) 
0

>  <SR-p53>  (93) 
0

$$$$
NCGC00018248-04
     RDKit          2D

 23 25  0  0  0  0  0  0  0  0999 V2000
    1.4096   -1.4662    0.0000 C   0  0  0  0  0  0  0  0  0  0  0  0
    1.4096   -2.3021    0.0000 C   0  0  0  0  0  0  0  0  0  0  0  0
    2.1108   -1.0554    0.0000 C   0  0  0  0  0  0  0  0  0  0  0  0
    0.6729   -1.0554    0.0000 C   0  0  0  0  0  0  0  0  0  0  0  0
    2.1108   -2.7412    0.0000 S   0  0  0  0  0  0  0  0  0  0  0  0
    0.6729   -2.7129    0.0000 C   0  0  0  0  0  0  0  0  0  0  0  0
    2.8262   -1.4662    0.0000 C   0  0  0  0  0  0  0  0  0  0  0  0
    2.1108   -0.2125    0.0000 O   0  0  0  0  0  0  0  0  0  0  0  0
    0.0000   -1.4662    0.0000 C   0  0  0  0  0  0  0  0  0  0  0  0
    2.8262   -2.3304    0.0000 N   0  0  0  0  0  0  0  0  0  0  0  0
    2.4933   -3.4425    0.0000 O   0  0  0  0  0  0  0  0  0  0  0  0
    1.6858   -3.4425    0.0000 O   0  0  0  0  0  0  0  0  0  0  0  0
    0.0000   -2.3021    0.0000 C   0  0  0  0  0  0  0  0  0  0  0  0
    3.5558   -1.0554    0.0000 C   0  0  0  0  0  0  0  0  0  0  0  0
    3.5558   -2.7129    0.0000 C   0  0  0  0  0  0  0  0  0  0  0  0
    4.2853   -1.4662    0.0000 N   0  0  0  0  0  0  0  0  0  0  0  0
    3.5558   -0.2125    0.0000 O   0  0  0  0  0  0  0  0  0  0  0  0
    4.9937   -1.0554    0.0000 C   0  0  0  0  0  0  0  0  0  0  0  0
    5.0007   -0.2267    0.0000 N   0  0  0  0  0  0  0  0  0  0  0  0
    5.7515   -1.3033    0.0000 S   0  0  0  0  0  0  0  0  0  0  0  0
    5.7728    0.0000    0.0000 C   0  0  0  0  0  0  0  0  0  0  0  0
    6.2686   -0.6588    0.0000 C   0  0  0  0  0  0  0  0  0  0  0  0
    7.0832   -0.6375    0.0000 C   0  0  0  0  0  0  0  0  0  0  0  0
  1  2  2  0
  1  3  1  0
  1  4  1  0
  2  5  1  0
  2  6  1  0
  3  7  2  0
  3  8  1  0
  4  9  2  0
  5 10  1  0
  5 11  2  0
  5 12  2  0
  6 13  2  0
  7 14  1  0
  7 10  1  0
  9 13  1  0
 10 15  1  0
 14 16  1  0
 14 17  2  0
 16 18  1  0
 18 19  2  0
 18 20  1  0
 19 21  1  0
 20 22  1  0
 21 22  2  0
 22 23  1  0
M  END
>  <Formula>  (94) 
C14H13N3O4S2

>  <FW>  (94) 
351.4007

>  <DSSTox_CID>  (94) 
803

>  <NR-Aromatase>  (94) 
0

>  <NR-AR>  (94) 
1

>  <NR-AR-LBD>  (94) 
0

>  <NR-ER>  (94) 
1

>  <NR-ER-LBD>  (94) 
0

>  <NR-PPAR-gamma>  (94) 
0

>  <NR-AhR>  (94) 
0

>  <SR-ATAD5>  (94) 
0

>  <SR-MMP>  (94) 
0

>  <SR-p53>  (94) 
0

$$$$
NCGC00095271-01
     RDKit          2D

 30 33  0  0  1  0  0  0  0  0999 V2000
    2.8637   -1.2436    0.0000 C   0  0  0  0  0  0  0  0  0  0  0  0
    2.8637   -2.0686    0.0000 C   0  0  0  0  0  0  0  0  0  0  0  0
    2.1463   -0.8251    0.0000 C   0  0  0  0  0  0  0  0  0  0  0  0
    2.1463   -2.4751    0.0000 C   0  0  0  0  0  0  0  0  0  0  0  0
    1.4349   -1.2436    0.0000 C   0  0  0  0  0  0  0  0  0  0  0  0
    1.4349   -2.0686    0.0000 O   0  0  0  0  0  0  0  0  0  0  0  0
    1.4349   -3.9220    0.0000 C   0  0  0  0  0  0  0  0  0  0  0  0
    1.4349   -4.7470    0.0000 C   0  0  0  0  0  0  0  0  0  0  0  0
    0.7174   -3.5035    0.0000 C   0  0  0  0  0  0  0  0  0  0  0  0
    0.7174   -5.1535    0.0000 C   0  0  0  0  0  0  0  0  0  0  0  0
    0.0000   -3.9220    0.0000 C   0  0  0  0  0  0  0  0  0  0  0  0
    0.0000   -4.7470    0.0000 C   0  0  0  0  0  0  0  0  0  0  0  0
    2.1463   -3.5035    0.0000 C   0  0  0  0  0  0  0  0  0  0  0  0
    2.8637   -3.9220    0.0000 C   0  0  0  0  0  0  0  0  0  0  0  0
    2.1463   -5.1535    0.0000 C   0  0  0  0  0  0  0  0  0  0  0  0
    2.8637   -4.7470    0.0000 C   0  0  0  0  0  0  0  0  0  0  0  0
    3.5812   -3.5035    0.0000 C   0  0  0  0  0  0  0  0  0  0  0  0
    4.2866   -3.9220    0.0000 C   0  0  0  0  0  0  0  0  0  0  0  0
    3.5692   -5.1535    0.0000 C   0  0  0  0  0  0  0  0  0  0  0  0
    4.2866   -4.7470    0.0000 C   0  0  0  0  0  0  0  0  0  0  0  0
    2.1463   -5.9786    0.0000 O   0  0  0  0  0  0  0  0  0  0  0  0
    0.7174   -5.9786    0.0000 O   0  0  0  0  0  0  0  0  0  0  0  0
    3.5692   -5.9786    0.0000 O   0  0  0  0  0  0  0  0  0  0  0  0
    5.0041   -3.5035    0.0000 C   0  0  0  0  0  0  0  0  0  0  0  0
    5.7215   -3.9220    0.0000 O   0  0  0  0  0  0  0  0  0  0  0  0
    0.7174   -0.8251    0.0000 C   0  0  0  0  0  0  0  0  0  0  0  0
    0.0000   -1.2436    0.0000 O   0  0  0  0  0  0  0  0  0  0  0  0
    2.1463    0.0000    0.0000 O   0  0  0  0  0  0  0  0  0  0  0  0
    3.5812   -0.8251    0.0000 O   0  0  0  0  0  0  0  0  0  0  0  0
    3.5812   -2.4751    0.0000 O   0  0  0  0  0  0  0  0  0  0  0  0
  1  2  1  0
  1  3  1  0
  1 29  1  6
  2  4  1  0
  2 30  1  1
  3  5  1  0
  3 28  1  1
  4  6  1  6
  4 13  1  0
  5  6  1  0
  5 26  1  6
  7  9  2  0
 13  7  1  6
  7  8  1  0
  8 10  2  0
  8 15  1  0
  9 11  1  0
 10 12  1  0
 10 22  1  0
 11 12  2  0
 13 14  1  0
 14 17  1  0
 14 16  2  0
 15 16  1  0
 15 21  2  0
 16 19  1  0
 17 18  2  0
 18 20  1  0
 18 24  1  0
 19 20  2  0
 19 23  1  0
 24 25  1  0
 26 27  1  0
M  END
>  <Formula>  (95) 
C21H22O9

>  <FW>  (95) 
418.3940

>  <DSSTox_CID>  (95) 
25967

>  <NR-Aromatase>  (95) 
0

>  <NR-AR>  (95) 
1

>  <NR-AR-LBD>  (95) 
0

>  <NR-ER>  (95) 
1

>  <NR-ER-LBD>  (95) 
0

>  <NR-PPAR-gamma>  (95) 
0

>  <NR-AhR>  (95) 
0

>  <SR-ATAD5>  (95) 
0

>  <SR-MMP>  (95) 
0

>  <SR-p53>  (95) 
0

$$$$
NCGC00160518-01
     RDKit          2D

 28 31  0  0  1  0  0  0  0  0999 V2000
    1.4274    0.0000    0.0000 C   0  0  0  0  0  0  0  0  0  0  0  0
    1.4274   -0.8208    0.0000 C   0  0  0  0  0  0  0  0  0  0  0  0
    2.1411   -1.2347    0.0000 C   0  0  0  0  0  0  0  0  0  0  0  0
    2.1411   -2.0625    0.0000 N   0  0  0  0  0  0  0  0  0  0  0  0
    1.4274   -2.4694    0.0000 C   0  0  0  0  0  0  0  0  0  0  0  0
    0.7137   -2.0625    0.0000 C   0  0  0  0  0  0  0  0  0  0  0  0
    0.0000   -2.4694    0.0000 C   0  0  0  0  0  0  0  0  0  0  0  0
    0.7137   -1.2347    0.0000 N   0  0  0  0  0  0  0  0  0  0  0  0
    2.8547   -2.4694    0.0000 C   0  0  0  0  0  0  0  0  0  0  0  0
    3.5684   -2.0625    0.0000 C   0  0  0  0  0  0  0  0  0  0  0  0
    3.5684   -1.2347    0.0000 F   0  0  0  0  0  0  0  0  0  0  0  0
    4.2821   -2.4694    0.0000 C   0  0  0  0  0  0  0  0  0  0  0  0
    4.2821   -3.2973    0.0000 C   0  0  0  0  0  0  0  0  0  0  0  0
    3.5684   -3.7111    0.0000 C   0  0  0  0  0  0  0  0  0  0  0  0
    2.8547   -3.2973    0.0000 C   0  0  0  0  0  0  0  0  0  0  0  0
    2.1411   -3.7111    0.0000 F   0  0  0  0  0  0  0  0  0  0  0  0
    3.5684   -4.5319    0.0000 F   0  0  0  0  0  0  0  0  0  0  0  0
    4.9958   -3.7111    0.0000 C   0  0  0  0  0  0  0  0  0  0  0  0
    4.9958   -4.5319    0.0000 O   0  0  0  0  0  0  0  0  0  0  0  0
    5.7095   -3.2973    0.0000 C   0  0  0  0  0  0  0  0  0  0  0  0
    5.7095   -2.4694    0.0000 C   0  0  0  0  0  0  0  0  0  0  0  0
    4.9958   -2.0625    0.0000 N   0  0  0  0  0  0  0  0  0  0  0  0
    4.9958   -1.2347    0.0000 C   0  0  0  0  0  0  0  0  0  0  0  0
    4.5819   -0.5210    0.0000 C   0  0  0  0  0  0  0  0  0  0  0  0
    5.4098   -0.5210    0.0000 C   0  0  0  0  0  0  0  0  0  0  0  0
    6.4231   -3.7111    0.0000 C   0  0  0  0  0  0  0  0  0  0  0  0
    7.1369   -3.2973    0.0000 O   0  0  0  0  0  0  0  0  0  0  0  0
    6.4231   -4.5319    0.0000 O   0  0  0  0  0  0  0  0  0  0  0  0
  2  1  1  1
  2  3  1  0
  2  8  1  0
  3  4  1  0
  4  5  1  0
  4  9  1  0
  5  6  1  0
  6  7  1  1
  6  8  1  0
  9 10  2  0
  9 15  1  0
 10 11  1  0
 10 12  1  0
 12 13  2  0
 12 22  1  0
 13 14  1  0
 13 18  1  0
 14 15  2  0
 14 17  1  0
 15 16  1  0
 18 19  2  0
 18 20  1  0
 20 21  2  0
 20 26  1  0
 21 22  1  0
 22 23  1  0
 23 24  1  0
 23 25  1  0
 24 25  1  0
 26 27  1  0
 26 28  2  0
M  END
>  <Formula>  (96) 
C19H20F3N3O3

>  <FW>  (96) 
395.3756

>  <DSSTox_CID>  (96) 
26201

>  <NR-Aromatase>  (96) 
0

>  <NR-AR>  (96) 
1

>  <NR-AR-LBD>  (96) 
1

>  <NR-ER>  (96) 
0

>  <NR-ER-LBD>  (96) 
0

>  <NR-PPAR-gamma>  (96) 
0

>  <NR-AhR>  (96) 
0

>  <SR-ATAD5>  (96) 
0

>  <SR-MMP>  (96) 
0

>  <SR-p53>  (96) 
0

$$$$
NCGC00255654-01
     RDKit          2D

 32 36  0  0  1  0  0  0  0  0999 V2000
    2.1379   -3.5656    0.0000 C   0  0  0  0  0  0  0  0  0  0  0  0
    2.1379   -4.3835    0.0000 C   0  0  0  0  0  0  0  0  0  0  0  0
    1.4277   -3.1495    0.0000 C   0  0  0  0  0  0  0  0  0  0  0  0
    1.4277   -4.7996    0.0000 C   0  0  0  0  0  0  0  0  0  0  0  0
    0.7174   -3.5656    0.0000 C   0  0  0  0  0  0  0  0  0  0  0  0
    0.7174   -4.3835    0.0000 C   0  0  0  0  0  0  0  0  0  0  0  0
    2.8625   -3.1495    0.0000 C   0  0  0  0  0  0  0  0  0  0  0  0
    3.5728   -3.5656    0.0000 C   0  0  0  0  0  0  0  0  0  0  0  0
    2.8625   -4.7996    0.0000 C   0  0  0  0  0  0  0  0  0  0  0  0
    3.5728   -4.3907    0.0000 C   0  0  0  0  0  0  0  0  0  0  0  0
    2.8625   -2.3245    0.0000 C   0  0  0  0  0  0  0  0  0  0  0  0
    3.5728   -1.9155    0.0000 C   0  0  0  0  0  0  0  0  0  0  0  0
    4.2902   -3.1495    0.0000 C   0  0  0  0  0  0  0  0  0  0  0  0
    4.2902   -2.3245    0.0000 C   0  0  0  0  0  0  0  0  0  0  0  0
    5.0722   -3.4006    0.0000 C   0  0  0  0  0  0  0  0  0  0  0  0
    5.5601   -2.7406    0.0000 C   0  0  0  0  0  0  0  0  0  0  0  0
    5.0722   -2.0662    0.0000 C   0  0  0  0  0  0  0  0  0  0  0  0
    6.3492   -2.4823    0.0000 O   0  0  0  0  0  0  0  0  0  0  0  0
    6.3492   -1.6573    0.0000 C   0  0  0  0  0  0  0  0  0  0  0  0
    5.5601   -1.4062    0.0000 O   0  0  0  0  0  0  0  0  0  0  0  0
    0.0000   -4.7996    0.0000 O   0  0  0  0  0  0  0  0  0  0  0  0
    2.8625   -5.6246    0.0000 F   0  0  0  0  0  0  0  0  0  0  0  0
    2.1379   -2.7263    0.0000 C   0  0  0  0  0  0  0  0  0  0  0  0
    2.8625   -3.9746    0.0000 F   0  0  0  0  0  0  0  0  0  0  0  0
    2.1379   -1.9155    0.0000 O   0  0  0  0  0  0  0  0  0  0  0  0
    4.2902   -1.4994    0.0000 C   0  0  0  0  0  0  0  0  0  0  0  0
    5.0722   -1.2412    0.0000 C   0  0  0  0  0  0  0  0  0  0  0  0
    5.7825   -0.8251    0.0000 C   0  0  0  0  0  0  0  0  0  0  0  0
    4.3476   -0.8322    0.0000 O   0  0  0  0  0  0  0  0  0  0  0  0
    5.7825    0.0000    0.0000 O   0  0  0  0  0  0  0  0  0  0  0  0
    6.7654   -0.9470    0.0000 C   0  0  0  0  0  0  0  0  0  0  0  0
    7.1743   -1.6573    0.0000 C   0  0  0  0  0  0  0  0  0  0  0  0
  1  3  1  0
  1  7  1  0
  1  2  1  0
  1 23  1  1
  2  4  2  0
  2  9  1  0
  3  5  2  0
  4  6  1  0
  5  6  1  0
  6 21  2  0
  7 11  1  0
  7  8  1  0
  7 24  1  6
  8 10  1  6
  8 13  1  0
  9 10  1  0
  9 22  1  6
 11 12  1  0
 11 25  1  1
 12 14  1  0
 13 15  1  1
 13 14  1  0
 14 17  1  0
 14 26  1  1
 16 15  1  6
 16 18  1  0
 16 17  1  0
 17 20  1  0
 17 27  1  1
 18 19  1  0
 19 20  1  0
 19 31  1  0
 19 32  1  0
 27 28  1  0
 27 29  2  0
 28 30  1  0
M  END
>  <Formula>  (97) 
C24H30F2O6

>  <FW>  (97) 
452.4882

>  <DSSTox_CID>  (97) 
20674

>  <NR-AR>  (97) 
1

>  <NR-AR-LBD>  (97) 
0

>  <NR-ER>  (97) 
0

>  <NR-ER-LBD>  (97) 
0

>  <NR-PPAR-gamma>  (97) 
0

>  <NR-AhR>  (97) 
0

>  <SR-ARE>  (97) 
0

>  <SR-HSE>  (97) 
0

>  <SR-p53>  (97) 
0

$$$$
NCGC00259344-01
     RDKit          2D

 31 35  0  0  1  0  0  0  0  0999 V2000
    5.0720   -1.2411    0.0000 C   0  0  0  0  0  0  0  0  0  0  0  0
    4.2901   -1.4993    0.0000 C   0  0  0  0  0  0  0  0  0  0  0  0
    2.8839   -2.3100    0.0000 C   0  0  0  0  0  0  0  0  0  0  0  0
    2.1593   -2.7189    0.0000 C   0  0  0  0  0  0  0  0  0  0  0  0
    4.2901   -2.3100    0.0000 C   0  0  0  0  0  0  0  0  0  0  0  0
    3.5726   -2.7261    0.0000 C   0  0  0  0  0  0  0  0  0  0  0  0
    5.5598   -1.9155    0.0000 C   0  0  0  0  0  0  0  0  0  0  0  0
    2.1593   -3.5511    0.0000 C   0  0  0  0  0  0  0  0  0  0  0  0
    5.5670   -0.5883    0.0000 O   0  0  0  0  0  0  0  0  0  0  0  0
    2.8839   -1.4993    0.0000 C   0  0  0  0  0  0  0  0  0  0  0  0
    3.5726   -1.0905    0.0000 C   0  0  0  0  0  0  0  0  0  0  0  0
    6.3418   -0.8393    0.0000 C   0  0  0  0  0  0  0  0  0  0  0  0
    6.3418   -1.6643    0.0000 O   0  0  0  0  0  0  0  0  0  0  0  0
    1.4420   -2.3100    0.0000 C   0  0  0  0  0  0  0  0  0  0  0  0
    5.0720   -2.5611    0.0000 C   0  0  0  0  0  0  0  0  0  0  0  0
    5.0720   -0.4161    0.0000 C   0  0  0  0  0  0  0  0  0  0  0  0
    1.4420   -3.9744    0.0000 C   0  0  0  0  0  0  0  0  0  0  0  0
    3.5726   -3.5511    0.0000 C   0  0  0  0  0  0  0  0  0  0  0  0
    0.7245   -2.7261    0.0000 C   0  0  0  0  0  0  0  0  0  0  0  0
    0.7245   -3.5439    0.0000 C   0  0  0  0  0  0  0  0  0  0  0  0
    2.8839   -3.9744    0.0000 C   0  0  0  0  0  0  0  0  0  0  0  0
    2.8911   -3.0991    0.0000 F   0  0  0  0  0  0  0  0  0  0  0  0
    5.8037    0.0000    0.0000 O   0  0  0  0  0  0  0  0  0  0  0  0
    0.0000   -3.9672    0.0000 O   0  0  0  0  0  0  0  0  0  0  0  0
    4.2901   -0.6600    0.0000 C   0  0  0  0  0  0  0  0  0  0  0  0
    2.1593   -1.0833    0.0000 O   0  0  0  0  0  0  0  0  0  0  0  0
    2.1593   -1.9011    0.0000 C   0  0  0  0  0  0  0  0  0  0  0  0
    4.3689    0.0000    0.0000 C   0  0  0  0  0  0  0  0  0  0  0  0
    7.1739   -0.8393    0.0000 C   0  0  0  0  0  0  0  0  0  0  0  0
    6.5570   -0.0359    0.0000 C   0  0  0  0  0  0  0  0  0  0  0  0
    3.6516   -0.4376    0.0000 O   0  0  0  0  0  0  0  0  0  0  0  0
  1  2  1  0
  1  7  1  0
  1  9  1  0
  1 16  1  1
  2  5  1  0
  2 11  1  0
  2 25  1  1
  3 10  1  0
  3  4  1  0
  3 22  1  6
  3  6  1  0
  4  8  1  0
  4 14  1  0
  4 27  1  1
  5  6  1  0
  5 15  1  1
  6 18  1  6
  7 13  1  0
  7 15  1  6
  8 17  2  0
  8 21  1  0
  9 12  1  0
 10 11  1  0
 10 26  1  1
 12 29  1  0
 12 30  1  0
 12 13  1  0
 14 19  2  0
 16 23  2  0
 16 28  1  0
 17 20  1  0
 18 21  1  0
 19 20  1  0
 20 24  2  0
 28 31  1  0
M  END
>  <Formula>  (98) 
C24H31FO6

>  <FW>  (98) 
434.4977

>  <DSSTox_CID>  (98) 
1371

>  <NR-AR>  (98) 
1

>  <NR-AR-LBD>  (98) 
0

>  <NR-ER>  (98) 
0

>  <NR-ER-LBD>  (98) 
0

>  <NR-PPAR-gamma>  (98) 
0

>  <SR-ARE>  (98) 
0

>  <SR-ATAD5>  (98) 
0

>  <SR-HSE>  (98) 
0

>  <SR-MMP>  (98) 
0

>  <SR-p53>  (98) 
0

$$$$
NCGC00256560-01
     RDKit          2D

 31 35  0  0  1  0  0  0  0  0999 V2000
    5.0720   -1.2411    0.0000 C   0  0  0  0  0  0  0  0  0  0  0  0
    4.2901   -1.4993    0.0000 C   0  0  0  0  0  0  0  0  0  0  0  0
    2.8839   -2.3100    0.0000 C   0  0  0  0  0  0  0  0  0  0  0  0
    2.1593   -2.7189    0.0000 C   0  0  0  0  0  0  0  0  0  0  0  0
    4.2901   -2.3100    0.0000 C   0  0  0  0  0  0  0  0  0  0  0  0
    3.5726   -2.7261    0.0000 C   0  0  0  0  0  0  0  0  0  0  0  0
    5.5598   -1.9155    0.0000 C   0  0  0  0  0  0  0  0  0  0  0  0
    2.1593   -3.5511    0.0000 C   0  0  0  0  0  0  0  0  0  0  0  0
    5.5670   -0.5883    0.0000 O   0  0  0  0  0  0  0  0  0  0  0  0
    2.8839   -1.4993    0.0000 C   0  0  0  0  0  0  0  0  0  0  0  0
    3.5726   -1.0905    0.0000 C   0  0  0  0  0  0  0  0  0  0  0  0
    6.3418   -0.8393    0.0000 C   0  0  0  0  0  0  0  0  0  0  0  0
    6.3418   -1.6643    0.0000 O   0  0  0  0  0  0  0  0  0  0  0  0
    1.4420   -2.3100    0.0000 C   0  0  0  0  0  0  0  0  0  0  0  0
    5.0720   -2.5611    0.0000 C   0  0  0  0  0  0  0  0  0  0  0  0
    5.0720   -0.4161    0.0000 C   0  0  0  0  0  0  0  0  0  0  0  0
    1.4420   -3.9744    0.0000 C   0  0  0  0  0  0  0  0  0  0  0  0
    3.5726   -3.5511    0.0000 C   0  0  0  0  0  0  0  0  0  0  0  0
    0.7245   -2.7261    0.0000 C   0  0  0  0  0  0  0  0  0  0  0  0
    0.7245   -3.5439    0.0000 C   0  0  0  0  0  0  0  0  0  0  0  0
    2.8839   -3.9744    0.0000 C   0  0  0  0  0  0  0  0  0  0  0  0
    2.8911   -3.0991    0.0000 F   0  0  0  0  0  0  0  0  0  0  0  0
    5.8037    0.0000    0.0000 O   0  0  0  0  0  0  0  0  0  0  0  0
    0.0000   -3.9672    0.0000 O   0  0  0  0  0  0  0  0  0  0  0  0
    4.2901   -0.6600    0.0000 C   0  0  0  0  0  0  0  0  0  0  0  0
    2.1593   -1.0833    0.0000 O   0  0  0  0  0  0  0  0  0  0  0  0
    2.1593   -1.9011    0.0000 C   0  0  0  0  0  0  0  0  0  0  0  0
    4.3689    0.0000    0.0000 C   0  0  0  0  0  0  0  0  0  0  0  0
    7.1739   -0.8393    0.0000 C   0  0  0  0  0  0  0  0  0  0  0  0
    6.5570   -0.0359    0.0000 C   0  0  0  0  0  0  0  0  0  0  0  0
    3.6516   -0.4376    0.0000 O   0  0  0  0  0  0  0  0  0  0  0  0
  1  2  1  0
  1  7  1  0
  1  9  1  0
  1 16  1  1
  2  5  1  0
  2 11  1  0
  2 25  1  1
  3 10  1  0
  3  4  1  0
  3 22  1  6
  3  6  1  0
  4  8  1  0
  4 14  1  0
  4 27  1  1
  5  6  1  0
  5 15  1  1
  6 18  1  6
  7 13  1  0
  7 15  1  6
  8 17  2  0
  8 21  1  0
  9 12  1  0
 10 11  1  0
 10 26  1  1
 12 29  1  0
 12 30  1  0
 12 13  1  0
 14 19  2  0
 16 23  2  0
 16 28  1  0
 17 20  1  0
 18 21  1  0
 19 20  1  0
 20 24  2  0
 28 31  1  0
M  END
>  <Formula>  (99) 
C24H31FO6

>  <FW>  (99) 
434.4977

>  <DSSTox_CID>  (99) 
1371

>  <NR-AR>  (99) 
1

>  <NR-AR-LBD>  (99) 
0

>  <NR-ER>  (99) 
0

>  <NR-ER-LBD>  (99) 
0

>  <NR-PPAR-gamma>  (99) 
0

>  <SR-ARE>  (99) 
0

>  <SR-ATAD5>  (99) 
0

>  <SR-HSE>  (99) 
0

>  <SR-MMP>  (99) 
0

>  <SR-p53>  (99) 
0

$$$$
NCGC00257636-01
     RDKit          2D

 22 26  0  0  1  0  0  0  0  0999 V2000
    1.4450   -3.3299    0.0000 C   0  0  0  0  0  0  0  0  0  0  0  0
    1.4450   -2.4899    0.0000 C   0  0  0  0  0  0  0  0  0  0  0  0
    2.1499   -3.7449    0.0000 C   0  0  0  0  0  0  0  0  0  0  0  0
    0.7200   -2.0749    0.0000 C   0  0  0  0  0  0  0  0  0  0  0  0
    0.7200   -3.7449    0.0000 C   0  0  0  0  0  0  0  0  0  0  0  0
    0.2400   -2.8849    0.0000 O   0  0  0  0  0  0  0  0  0  0  0  0
    2.8649   -3.3149    0.0000 C   0  0  0  0  0  0  0  0  0  0  0  0
    2.1499   -2.0749    0.0000 C   0  0  0  0  0  0  0  0  0  0  0  0
    2.1499   -4.5698    0.0000 C   0  0  0  0  0  0  0  0  0  0  0  0
    2.8649   -2.4899    0.0000 C   0  0  0  0  0  0  0  0  0  0  0  0
    3.2649   -3.6999    0.0000 N   0  0  0  0  0  0  0  0  0  0  0  0
    1.4450   -4.1548    0.0000 C   0  0  0  0  0  0  0  0  0  0  0  0
    1.4450   -4.9848    0.0000 C   0  0  0  0  0  0  0  0  0  0  0  0
    0.7200   -4.5848    0.0000 C   0  0  0  0  0  0  0  0  0  0  0  0
    0.7200   -1.2550    0.0000 C   0  0  0  0  0  0  0  0  0  0  0  0
    3.0249   -4.1548    0.0000 C   0  0  0  0  0  0  0  0  0  0  0  0
    2.1499   -1.2550    0.0000 C   0  0  0  0  0  0  0  0  0  0  0  0
    1.4450   -0.8300    0.0000 C   0  0  0  0  0  0  0  0  0  0  0  0
    0.0250   -4.9998    0.0000 O   0  0  0  0  0  0  0  0  0  0  0  0
    0.0000   -0.8300    0.0000 O   0  0  0  0  0  0  0  0  0  0  0  0
    4.0398   -3.6999    0.0000 C   0  0  0  0  0  0  0  0  0  0  0  0
    0.0000    0.0000    0.0000 C   0  0  0  0  0  0  0  0  0  0  0  0
  1  2  1  0
  1  3  1  0
  1  5  1  0
  1 12  1  1
  2  4  2  0
  2  8  1  0
  3  7  1  0
  3  9  1  6
  4 15  1  0
  4  6  1  0
  5  6  1  6
  5 14  1  0
  7 10  1  1
  7 11  1  0
  8 17  2  0
  8 10  1  0
  9 13  2  0
 11 16  1  0
 11 21  1  0
 12 16  1  0
 13 14  1  0
 14 19  1  6
 15 20  1  0
 15 18  2  0
 17 18  1  0
 20 22  1  0
M  END
>  <Formula>  (100) 
C18H21NO3

>  <FW>  (100) 
299.3642

>  <DSSTox_CID>  (100) 
341

>  <NR-Aromatase>  (100) 
0

>  <NR-AR>  (100) 
1

>  <NR-AR-LBD>  (100) 
0

>  <NR-ER>  (100) 
0

>  <NR-ER-LBD>  (100) 
0

>  <NR-PPAR-gamma>  (100) 
0

>  <NR-AhR>  (100) 
0

>  <SR-ARE>  (100) 
1

>  <SR-ATAD5>  (100) 
0

>  <SR-HSE>  (100) 
0

>  <SR-MMP>  (100) 
0

>  <SR-p53>  (100) 
0

$$$$
NCGC00254244-01
     RDKit          2D

 29 30  0  0  0  0  0  0  0  0999 V2000
    2.0726   -0.7143    0.0000 C   0  0  0  0  0  0  0  0  0  0  0  0
    2.4851   -1.4287    0.0000 C   0  0  0  0  0  0  0  0  0  0  0  0
    1.2476   -0.7143    0.0000 C   0  0  0  0  0  0  0  0  0  0  0  0
    2.0726   -2.1430    0.0000 C   0  0  0  0  0  0  0  0  0  0  0  0
    0.8250   -1.4287    0.0000 C   0  0  0  0  0  0  0  0  0  0  0  0
    1.2476   -2.1430    0.0000 C   0  0  0  0  0  0  0  0  0  0  0  0
    3.3101   -1.4287    0.0000 C   0  0  0  0  0  0  0  0  0  0  0  0
    3.7327   -0.7143    0.0000 C   0  0  0  0  0  0  0  0  0  0  0  0
    3.7327   -2.1430    0.0000 C   0  0  0  0  0  0  0  0  0  0  0  0
    4.5577   -0.7143    0.0000 C   0  0  0  0  0  0  0  0  0  0  0  0
    4.5577   -2.1430    0.0000 C   0  0  0  0  0  0  0  0  0  0  0  0
    4.9702   -1.4287    0.0000 N   0  0  0  0  0  0  0  0  0  0  0  0
    0.8250   -2.8573    0.0000 C   0  0  0  0  0  0  0  0  0  0  0  0
    0.0000   -2.8573    0.0000 N   0  0  0  0  0  0  0  0  0  0  0  0
    2.4851    0.0000    0.0000 F   0  0  0  0  0  0  0  0  0  0  0  0
    5.7952   -1.4287    0.0000 C   0  0  0  0  0  0  0  0  0  0  0  0
    6.2077   -2.1430    0.0000 C   0  0  0  0  0  0  0  0  0  0  0  0
    6.2077   -0.7143    0.0000 O   0  0  0  0  0  0  0  0  0  0  0  0
    7.0327   -2.2335    0.0000 S   0  0  0  0  0  0  0  0  0  0  0  0
    7.2138   -3.0385    0.0000 C   0  0  0  0  0  0  0  0  0  0  0  0
    5.8757   -2.8976    0.0000 C   0  0  0  0  0  0  0  0  0  0  0  0
    6.4894   -3.4610    0.0000 C   0  0  0  0  0  0  0  0  0  0  0  0
    5.0607   -3.0686    0.0000 C   0  0  0  0  0  0  0  0  0  0  0  0
    6.3989   -4.2760    0.0000 Br  0  0  0  0  0  0  0  0  0  0  0  0
    7.9684   -3.3805    0.0000 O   0  0  0  0  0  0  0  0  0  0  0  0
    8.6324   -2.8876    0.0000 C   0  0  0  0  0  0  0  0  0  0  0  0
    9.3971   -3.2296    0.0000 C   0  0  0  0  0  0  0  0  0  0  0  0
   10.0611   -2.7467    0.0000 C   0  0  0  0  0  0  0  0  0  0  0  0
    8.0288   -4.4772    0.0000 Cl  0  0  0  0  0  0  0  0  0  0  0  0
  1  2  2  0
  1  3  1  0
  1 15  1  0
  2  4  1  0
  2  7  1  0
  3  5  2  0
  4  6  2  0
  5  6  1  0
  6 13  1  0
  7  8  1  0
  7  9  1  0
  8 10  1  0
  9 11  1  0
 10 12  1  0
 11 12  1  0
 12 16  1  0
 13 14  1  0
 16 17  1  0
 16 18  2  0
 17 19  1  0
 17 21  2  0
 19 20  1  0
 20 22  2  0
 20 25  1  0
 21 22  1  0
 21 23  1  0
 22 24  1  0
 25 26  1  0
 26 27  1  0
 27 28  1  0
M  END
>  <Formula>  (101) 
C21H27BrClFN2O2S

>  <FW>  (101) 
505.8717 (469.4107+36.4609)

>  <DSSTox_CID>  (101) 
27381

>  <NR-AR>  (101) 
0

>  <NR-AR-LBD>  (101) 
1

>  <SR-ATAD5>  (101) 
0

$$$$
NCGC00183118-01
     RDKit          2D

 46 50  0  0  1  0  0  0  0  0999 V2000
    2.1359   -2.4888    0.0000 C   0  0  0  0  0  0  0  0  0  0  0  0
    1.4116   -2.0709    0.0000 C   0  0  0  0  0  0  0  0  0  0  0  0
    1.4116   -3.7240    0.0000 C   0  0  0  0  0  0  0  0  0  0  0  0
    0.7151   -2.4888    0.0000 C   0  0  0  0  0  0  0  0  0  0  0  0
    0.7151   -3.3060    0.0000 C   0  0  0  0  0  0  0  0  0  0  0  0
    2.8417   -2.0709    0.0000 C   0  0  0  0  0  0  0  0  0  0  0  0
    3.5475   -2.4888    0.0000 C   0  0  0  0  0  0  0  0  0  0  0  0
    3.5475   -3.3153    0.0000 C   0  0  0  0  0  0  0  0  0  0  0  0
    4.2718   -2.0709    0.0000 O   0  0  0  0  0  0  0  0  0  0  0  0
    4.9776   -2.4888    0.0000 C   0  0  0  0  0  0  0  0  0  0  0  0
    4.2718   -3.7240    0.0000 C   0  0  0  0  0  0  0  0  0  0  0  0
    4.9776   -3.3153    0.0000 C   0  0  0  0  0  0  0  0  0  0  0  0
    6.3984   -1.6716    0.0000 C   0  0  0  0  0  0  0  0  0  0  0  0
    6.3984   -2.4888    0.0000 C   0  0  0  0  0  0  0  0  0  0  0  0
    5.6834   -1.2537    0.0000 C   0  0  0  0  0  0  0  0  0  0  0  0
    5.6834   -2.8881    0.0000 O   0  0  0  0  0  0  0  0  0  0  0  0
    4.9776   -1.6716    0.0000 C   0  0  0  0  0  0  0  0  0  0  0  0
    7.1228   -2.8881    0.0000 C   0  0  0  0  0  0  0  0  0  0  0  0
    2.8417   -4.5411    0.0000 O   0  0  0  0  0  0  0  0  0  0  0  0
    4.2718   -4.5411    0.0000 O   0  0  0  0  0  0  0  0  0  0  0  0
    3.5475   -4.9405    0.0000 C   0  0  0  0  0  0  0  0  0  0  0  0
    2.1452   -4.9405    0.0000 C   0  0  0  0  0  0  0  0  0  0  0  0
    2.1452   -5.7577    0.0000 C   0  0  0  0  0  0  0  0  0  0  0  0
    3.5475   -5.7577    0.0000 C   0  0  0  0  0  0  0  0  0  0  0  0
    2.8417   -6.1849    0.0000 C   0  0  0  0  0  0  0  0  0  0  0  0
    1.4116   -4.5411    0.0000 C   0  0  0  0  0  0  0  0  0  0  0  0
    1.4116   -6.1849    0.0000 C   0  0  0  0  0  0  0  0  0  0  0  0
    1.4116   -6.9928    0.0000 O   0  0  0  0  0  0  0  0  0  0  0  0
    2.8417   -6.9928    0.0000 C   0  0  0  0  0  0  0  0  0  0  0  0
    4.2718   -6.1849    0.0000 C   0  0  0  0  0  0  0  0  0  0  0  0
    4.2718   -6.9928    0.0000 C   0  0  0  0  0  0  0  0  0  0  0  0
    3.5475   -7.4014    0.0000 C   0  0  0  0  0  0  0  0  0  0  0  0
    1.4116   -1.2537    0.0000 C   0  0  0  0  0  0  0  0  0  0  0  0
    0.0000   -3.7240    0.0000 C   0  0  0  0  0  0  0  0  0  0  0  0
    2.8417   -5.3584    0.0000 O   0  0  0  0  0  0  0  0  0  0  0  0
    4.9776   -7.4014    0.0000 C   0  0  0  0  0  0  0  0  0  0  0  0
    3.5475   -8.2279    0.0000 O   0  0  0  0  0  0  0  0  0  0  0  0
    7.1135   -1.2537    0.0000 C   0  0  0  0  0  0  0  0  0  0  0  0
    5.6834   -0.4272    0.0000 N   0  0  0  0  0  0  0  0  0  0  0  0
    6.4077    0.0000    0.0000 O   0  0  0  0  0  0  0  0  0  0  0  0
    7.1321   -0.4272    0.0000 C   0  0  0  0  0  0  0  0  0  0  0  0
    7.1228   -3.7240    0.0000 C   0  0  0  0  0  0  0  0  0  0  0  0
    7.8379   -2.4702    0.0000 C   0  0  0  0  0  0  0  0  0  0  0  0
    8.5715   -2.8881    0.0000 C   0  0  0  0  0  0  0  0  0  0  0  0
    9.2866   -2.4702    0.0000 C   0  0  0  0  0  0  0  0  0  0  0  0
    8.5715   -3.7240    0.0000 C   0  0  0  0  0  0  0  0  0  0  0  0
  1  2  2  0
  1  6  1  0
  2  4  1  0
  2 33  1  0
  3  5  1  0
  3 26  2  0
  4  5  1  0
  5 34  1  6
  7  6  1  1
  7  9  1  0
  7  8  1  0
  8 11  1  0
  9 10  1  0
 10 12  1  1
 10 16  1  0
 10 17  1  0
 11 12  1  1
 11 20  1  0
 13 14  1  0
 13 15  1  0
 13 38  1  6
 14 18  1  0
 14 16  1  1
 15 17  1  0
 15 39  2  0
 18 42  1  0
 18 43  2  0
 19 21  2  0
 20 21  1  0
 21 24  1  0
 22 23  2  0
 22 26  1  0
 23 27  1  0
 23 25  1  0
 24 30  1  6
 24 25  1  0
 25 29  1  0
 25 35  1  6
 27 28  1  0
 29 28  1  1
 29 32  1  0
 30 31  2  0
 31 32  1  0
 31 36  1  0
 32 37  1  1
 39 40  1  0
 40 41  1  0
 43 44  1  0
 44 45  1  0
 44 46  1  0
M  END
>  <Formula>  (102) 
C37H53NO8

>  <FW>  (102) 
639.8186

>  <DSSTox_CID>  (102) 
17577

>  <NR-AR>  (102) 
1

>  <NR-AR-LBD>  (102) 
1

>  <NR-AhR>  (102) 
0

>  <SR-ATAD5>  (102) 
0

>  <SR-MMP>  (102) 
1

$$$$
NCGC00165957-04
     RDKit          2D

 38 39  0  0  0  0  0  0  0  0999 V2000
    6.3413   -3.3128    0.0000 C   0  0  0  0  0  0  0  0  0  0  0  0
    5.6302   -2.8945    0.0000 C   0  0  0  0  0  0  0  0  0  0  0  0
    4.9274   -3.3128    0.0000 O   0  0  0  0  0  0  0  0  0  0  0  0
    4.2163   -2.0831    0.0000 O   0  0  0  0  0  0  0  0  0  0  0  0
    7.0272   -4.5259    0.0000 N   0  0  0  0  0  0  0  0  0  0  0  0
    6.3413   -4.1243    0.0000 C   0  0  0  0  0  0  0  0  0  0  0  0
    5.6302   -4.5259    0.0000 C   0  0  0  0  0  0  0  0  0  0  0  0
    4.9274   -4.1243    0.0000 O   0  0  0  0  0  0  0  0  0  0  0  0
    4.2163   -4.5259    0.0000 C   0  0  0  0  0  0  0  0  0  0  0  0
    0.0000   -2.8945    0.0000 C   0  0  0  0  0  0  0  0  0  0  0  0
    1.4138   -2.0831    0.0000 O   0  0  0  0  0  0  0  0  0  0  0  0
    0.7027   -3.3128    0.0000 O   0  0  0  0  0  0  0  0  0  0  0  0
    1.4138   -2.8945    0.0000 C   0  0  0  0  0  0  0  0  0  0  0  0
    4.2163   -2.8945    0.0000 C   0  0  0  0  0  0  0  0  0  0  0  0
    1.4138   -4.5259    0.0000 C   0  0  0  0  0  0  0  0  0  0  0  0
    4.2498   -1.6564    0.0000 Cl  0  0  0  0  0  0  0  0  0  0  0  0
    2.0998   -0.4099    0.0000 C   0  0  0  0  0  0  0  0  0  0  0  0
    2.0998   -1.2465    0.0000 C   0  0  0  0  0  0  0  0  0  0  0  0
    2.8193    0.0000    0.0000 C   0  0  0  0  0  0  0  0  0  0  0  0
    2.8193   -1.6564    0.0000 C   0  0  0  0  0  0  0  0  0  0  0  0
    3.5303   -0.4099    0.0000 C   0  0  0  0  0  0  0  0  0  0  0  0
    3.5303   -1.2465    0.0000 C   0  0  0  0  0  0  0  0  0  0  0  0
    3.5220   -3.3128    0.0000 C   0  0  0  0  0  0  0  0  0  0  0  0
    3.5220   -4.1243    0.0000 C   0  0  0  0  0  0  0  0  0  0  0  0
    2.8193   -2.8945    0.0000 C   0  0  0  0  0  0  0  0  0  0  0  0
    2.8193   -4.5259    0.0000 N   0  0  0  0  0  0  0  0  0  0  0  0
    2.1082   -3.3128    0.0000 C   0  0  0  0  0  0  0  0  0  0  0  0
    2.1082   -4.1243    0.0000 C   0  0  0  0  0  0  0  0  0  0  0  0
    5.7557   -0.9202    0.0000 S   0  0  0  0  0  0  0  0  0  0  0  0
    5.7557   -0.0502    0.0000 O   0  0  0  0  0  0  0  0  0  0  0  0
    5.7557   -1.7736    0.0000 O   0  0  0  0  0  0  0  0  0  0  0  0
    6.6257   -0.9202    0.0000 C   0  0  0  0  0  0  0  0  0  0  0  0
    4.8856   -0.9202    0.0000 O   0  0  0  0  0  0  0  0  0  0  0  0
    7.0607   -1.6564    0.0000 C   0  0  0  0  0  0  0  0  0  0  0  0
    7.0607   -0.1673    0.0000 C   0  0  0  0  0  0  0  0  0  0  0  0
    7.9307   -0.1673    0.0000 C   0  0  0  0  0  0  0  0  0  0  0  0
    7.9307   -1.6564    0.0000 C   0  0  0  0  0  0  0  0  0  0  0  0
    8.3658   -0.9202    0.0000 C   0  0  0  0  0  0  0  0  0  0  0  0
  1  2  1  0
  2  3  1  0
  3 14  1  0
  4 14  2  0
  5  6  1  0
  6  7  1  0
  7  8  1  0
  8  9  1  0
  9 24  1  0
 10 12  1  0
 11 13  2  0
 12 13  1  0
 13 27  1  0
 14 23  1  0
 15 28  1  0
 16 22  1  0
 17 18  2  0
 17 19  1  0
 18 20  1  0
 19 21  2  0
 20 22  2  0
 20 25  1  0
 21 22  1  0
 23 24  2  0
 23 25  1  0
 24 26  1  0
 25 27  1  0
 26 28  1  0
 27 28  2  0
 29 30  2  0
 29 31  2  0
 29 32  1  0
 29 33  1  0
 32 34  2  0
 32 35  1  0
 34 37  1  0
 35 36  2  0
 36 38  1  0
 37 38  2  0
M  END
>  <Formula>  (103) 
C26H31ClN2O8S

>  <FW>  (103) 
567.0509 (408.8759+158.1750)

>  <DSSTox_CID>  (103) 
23909

>  <NR-AR>  (103) 
0

>  <NR-AR-LBD>  (103) 
1

>  <NR-ER>  (103) 
0

>  <NR-PPAR-gamma>  (103) 
1

>  <SR-ATAD5>  (103) 
0

>  <SR-p53>  (103) 
1

$$$$
NCGC00167481-01
     RDKit          2D

 59 64  0  0  1  0  0  0  0  0999 V2000
    6.0630   -1.3942    0.0000 Cl  0  0  0  0  0  0  0  0  0  0  0  0
    0.0000   -5.3339    0.0000 C   0  0  0  0  0  0  0  0  0  0  0  0
    0.7163   -4.9245    0.0000 O   0  0  0  0  0  0  0  0  0  0  0  0
    1.4198   -5.3339    0.0000 C   0  0  0  0  0  0  0  0  0  0  0  0
    1.4198   -6.1525    0.0000 O   0  0  0  0  0  0  0  0  0  0  0  0
    2.1361   -4.9245    0.0000 C   0  0  0  0  0  0  0  0  0  0  0  0
    2.1361   -4.0932    0.0000 C   0  0  0  0  0  0  0  0  0  0  0  0
    1.4198   -3.6838    0.0000 C   0  0  0  0  0  0  0  0  0  0  0  0
    1.4198   -2.8652    0.0000 C   0  0  0  0  0  0  0  0  0  0  0  0
    0.7163   -2.4559    0.0000 C   0  0  0  0  0  0  0  0  0  0  0  0
    0.0000   -2.8652    0.0000 O   0  0  0  0  0  0  0  0  0  0  0  0
    0.7163   -1.6373    0.0000 C   0  0  0  0  0  0  0  0  0  0  0  0
    0.0000   -1.2279    0.0000 C   0  0  0  0  0  0  0  0  0  0  0  0
    0.0000   -0.4093    0.0000 C   0  0  0  0  0  0  0  0  0  0  0  0
    0.7163    0.0000    0.0000 C   0  0  0  0  0  0  0  0  0  0  0  0
    1.4198   -0.4093    0.0000 C   0  0  0  0  0  0  0  0  0  0  0  0
    2.1361    0.0000    0.0000 O   0  0  0  0  0  0  0  0  0  0  0  0
    1.4198   -1.2279    0.0000 C   0  0  0  0  0  0  0  0  0  0  0  0
    2.1361   -1.6373    0.0000 C   0  0  0  0  0  0  0  0  0  0  0  0
    2.8396   -1.2279    0.0000 O   0  0  0  0  0  0  0  0  0  0  0  0
    2.1361   -2.4559    0.0000 C   0  0  0  0  0  0  0  0  0  0  0  0
    2.8396   -2.8652    0.0000 C   0  0  0  0  0  0  0  0  0  0  0  0
    3.5559   -2.4559    0.0000 O   0  0  0  0  0  0  0  0  0  0  0  0
    2.8396   -3.6838    0.0000 C   0  0  0  0  0  0  0  0  0  0  0  0
    3.5559   -4.0932    0.0000 C   0  0  0  0  0  0  0  0  0  0  0  0
    3.5559   -4.9245    0.0000 C   0  0  0  0  0  0  0  0  0  0  0  0
    2.8396   -5.3339    0.0000 C   0  0  0  0  0  0  0  0  0  0  0  0
    2.3152   -5.9606    0.0000 O   0  0  0  0  0  0  0  0  0  0  0  0
    3.3640   -5.9606    0.0000 C   0  0  0  0  0  0  0  0  0  0  0  0
    3.0954   -6.7281    0.0000 C   0  0  0  0  0  0  0  0  0  0  0  0
    4.2595   -3.6838    0.0000 O   0  0  0  0  0  0  0  0  0  0  0  0
    4.9757   -4.0932    0.0000 C   0  0  0  0  0  0  0  0  0  0  0  0
    5.6792   -3.6838    0.0000 O   0  0  0  0  0  0  0  0  0  0  0  0
    6.3955   -4.0932    0.0000 C   0  0  0  0  0  0  0  0  0  0  0  0
    7.1118   -3.6838    0.0000 C   0  0  0  0  0  0  0  0  0  0  0  0
    6.3955   -4.9245    0.0000 C   0  0  0  0  0  0  0  0  0  0  0  0
    7.1118   -5.3339    0.0000 O   0  0  0  0  0  0  0  0  0  0  0  0
    7.8153   -4.9245    0.0000 C   0  0  0  0  0  0  0  0  0  0  0  0
    7.8153   -4.0932    0.0000 C   0  0  0  0  0  0  0  0  0  0  0  0
    8.5317   -3.6838    0.0000 C   0  0  0  0  0  0  0  0  0  0  0  0
    8.5317   -2.8652    0.0000 O   0  0  0  0  0  0  0  0  0  0  0  0
    9.2352   -4.0932    0.0000 C   0  0  0  0  0  0  0  0  0  0  0  0
    9.9515   -3.6838    0.0000 O   0  0  0  0  0  0  0  0  0  0  0  0
   10.6550   -4.0932    0.0000 C   0  0  0  0  0  0  0  0  0  0  0  0
   11.3713   -3.6838    0.0000 C   0  0  0  0  0  0  0  0  0  0  0  0
   12.0748   -4.0932    0.0000 C   0  0  0  0  0  0  0  0  0  0  0  0
   12.0748   -4.9245    0.0000 C   0  0  0  0  0  0  0  0  0  0  0  0
   12.7911   -5.3339    0.0000 O   0  0  0  0  0  0  0  0  0  0  0  0
   11.3713   -5.3339    0.0000 C   0  0  0  0  0  0  0  0  0  0  0  0
   11.3713   -6.1525    0.0000 C   0  0  0  0  0  0  0  0  0  0  0  0
   10.6550   -4.9245    0.0000 O   0  0  0  0  0  0  0  0  0  0  0  0
    9.2352   -4.9245    0.0000 C   0  0  0  0  0  0  0  0  0  0  0  0
    9.9515   -5.3339    0.0000 C   0  0  0  0  0  0  0  0  0  0  0  0
    8.5317   -5.3339    0.0000 O   0  0  0  0  0  0  0  0  0  0  0  0
    5.6792   -5.3339    0.0000 C   0  0  0  0  0  0  0  0  0  0  0  0
    4.9757   -4.9245    0.0000 C   0  0  0  0  0  0  0  0  0  0  0  0
    5.6792   -6.1525    0.0000 N   0  0  0  0  0  0  0  0  0  0  0  0
    6.3955   -6.5618    0.0000 C   0  0  0  0  0  0  0  0  0  0  0  0
    4.9757   -6.5618    0.0000 C   0  0  0  0  0  0  0  0  0  0  0  0
  2  3  1  0
  3  4  1  0
  4  5  2  0
  6  4  1  6
  6  7  1  0
  6 27  1  0
  7  8  1  0
  7 24  2  0
  8  9  2  0
  9 10  1  0
  9 21  1  0
 10 11  2  0
 10 12  1  0
 12 13  2  0
 12 18  1  0
 13 14  1  0
 14 15  2  0
 15 16  1  0
 16 17  1  0
 16 18  2  0
 18 19  1  0
 19 20  2  0
 19 21  1  0
 21 22  2  0
 22 23  1  0
 22 24  1  0
 24 25  1  0
 25 26  1  0
 25 31  1  1
 26 27  1  0
 27 28  1  1
 27 29  1  0
 29 30  1  0
 32 31  1  6
 32 33  1  0
 32 56  1  0
 33 34  1  0
 34 35  1  1
 34 36  1  0
 36 37  1  1
 36 55  1  0
 38 37  1  1
 38 39  1  0
 38 54  1  0
 39 40  1  0
 40 41  1  6
 40 42  1  0
 42 43  1  6
 42 52  1  0
 44 43  1  1
 44 45  1  0
 44 51  1  0
 45 46  1  0
 46 47  1  0
 47 48  2  0
 47 49  1  0
 49 50  1  6
 49 51  1  0
 52 53  1  6
 52 54  1  0
 55 56  1  0
 55 57  1  1
 57 58  1  0
 57 59  1  0
M  END
>  <Formula>  (104) 
C42H54ClNO15

>  <FW>  (104) 
848.3289 (36.4609+811.8679)

>  <DSSTox_CID>  (104) 
26658

>  <NR-Aromatase>  (104) 
1

>  <NR-AR>  (104) 
0

>  <NR-AR-LBD>  (104) 
1

>  <NR-ER>  (104) 
1

>  <SR-MMP>  (104) 
1

>  <SR-p53>  (104) 
1

$$$$
NCGC00163543-01
     RDKit          2D

 40 43  0  0  1  0  0  0  0  0999 V2000
    2.0995   -6.7060    0.0000 O   0  0  0  0  0  0  0  0  0  0  0  0
    2.3816   -5.9304    0.0000 C   0  0  0  0  0  0  0  0  0  0  0  0
    1.8567   -5.3115    0.0000 C   0  0  0  0  0  0  0  0  0  0  0  0
    1.0420   -5.4447    0.0000 O   0  0  0  0  0  0  0  0  0  0  0  0
    2.1387   -4.5281    0.0000 C   0  0  0  0  0  0  0  0  0  0  0  0
    1.3318   -4.3871    0.0000 O   0  0  0  0  0  0  0  0  0  0  0  0
    2.1387   -3.6977    0.0000 C   0  0  0  0  0  0  0  0  0  0  0  0
    2.8594   -3.2982    0.0000 C   0  0  0  0  0  0  0  0  0  0  0  0
    2.8594   -2.4677    0.0000 O   0  0  0  0  0  0  0  0  0  0  0  0
    2.1387   -2.0525    0.0000 C   0  0  0  0  0  0  0  0  0  0  0  0
    1.4258   -2.4677    0.0000 C   0  0  0  0  0  0  0  0  0  0  0  0
    0.7129   -2.0525    0.0000 C   0  0  0  0  0  0  0  0  0  0  0  0
    0.0000   -2.4677    0.0000 N   0  0  0  0  0  0  0  0  0  0  0  0
    0.7129   -1.2300    0.0000 C   0  0  0  0  0  0  0  0  0  0  0  0
    0.0000   -0.8226    0.0000 O   0  0  0  0  0  0  0  0  0  0  0  0
    1.4258   -0.8226    0.0000 C   0  0  0  0  0  0  0  0  0  0  0  0
    1.4258    0.0000    0.0000 C   0  0  0  0  0  0  0  0  0  0  0  0
    2.1387   -1.2300    0.0000 O   0  0  0  0  0  0  0  0  0  0  0  0
    3.5724   -3.6977    0.0000 C   0  0  0  0  0  0  0  0  0  0  0  0
    4.2774   -3.2982    0.0000 C   0  0  0  0  0  0  0  0  0  0  0  0
    4.2774   -2.4677    0.0000 O   0  0  0  0  0  0  0  0  0  0  0  0
    4.9903   -3.6977    0.0000 C   0  0  0  0  0  0  0  0  0  0  0  0
    5.7032   -3.2982    0.0000 C   0  0  0  0  0  0  0  0  0  0  0  0
    5.7032   -2.4677    0.0000 O   0  0  0  0  0  0  0  0  0  0  0  0
    6.4161   -3.6977    0.0000 C   0  0  0  0  0  0  0  0  0  0  0  0
    7.1291   -3.2982    0.0000 C   0  0  0  0  0  0  0  0  0  0  0  0
    7.1291   -2.4677    0.0000 O   0  0  0  0  0  0  0  0  0  0  0  0
    7.8341   -2.0525    0.0000 C   0  0  0  0  0  0  0  0  0  0  0  0
    7.8341   -3.6977    0.0000 C   0  0  0  0  0  0  0  0  0  0  0  0
    7.8341   -4.5281    0.0000 C   0  0  0  0  0  0  0  0  0  0  0  0
    7.1291   -4.9433    0.0000 C   0  0  0  0  0  0  0  0  0  0  0  0
    6.4161   -4.5281    0.0000 C   0  0  0  0  0  0  0  0  0  0  0  0
    5.7032   -4.9433    0.0000 C   0  0  0  0  0  0  0  0  0  0  0  0
    5.7032   -5.7659    0.0000 O   0  0  0  0  0  0  0  0  0  0  0  0
    4.9903   -4.5281    0.0000 C   0  0  0  0  0  0  0  0  0  0  0  0
    4.2774   -4.9433    0.0000 C   0  0  0  0  0  0  0  0  0  0  0  0
    4.2774   -5.7659    0.0000 O   0  0  0  0  0  0  0  0  0  0  0  0
    3.5724   -4.5281    0.0000 C   0  0  0  0  0  0  0  0  0  0  0  0
    2.8594   -4.9433    0.0000 C   0  0  0  0  0  0  0  0  0  0  0  0
    5.9696   -0.3682    0.0000 Cl  0  0  0  0  0  0  0  0  0  0  0  0
  1  2  1  0
  2  3  1  0
  3  4  2  0
  5  3  1  0
  5  6  1  6
  5  7  1  0
  5 39  1  0
  7  8  1  0
  8  9  1  6
  8 19  1  0
 10  9  1  1
 10 11  1  0
 10 18  1  0
 11 12  1  0
 12 13  1  6
 12 14  1  0
 14 15  1  6
 14 16  1  0
 16 17  1  6
 16 18  1  0
 19 20  1  0
 19 38  2  0
 20 21  1  0
 20 22  2  0
 22 23  1  0
 22 35  1  0
 23 24  2  0
 23 25  1  0
 25 26  2  0
 25 32  1  0
 26 27  1  0
 26 29  1  0
 27 28  1  0
 29 30  2  0
 30 31  1  0
 31 32  2  0
 32 33  1  0
 33 34  2  0
 33 35  1  0
 35 36  2  0
 36 37  1  0
 36 38  1  0
 38 39  1  0
M  END
>  <Formula>  (105) 
C27H30ClNO11

>  <FW>  (105) 
579.9802 (543.5193+36.4609)

>  <DSSTox_CID>  (105) 
10636

>  <NR-AR>  (105) 
0

>  <NR-AR-LBD>  (105) 
1

>  <NR-ER-LBD>  (105) 
1

>  <SR-ATAD5>  (105) 
1

>  <SR-p53>  (105) 
1

$$$$
NCGC00258711-01
     RDKit          2D

 39 42  0  0  1  0  0  0  0  0999 V2000
    5.0456   -5.0061    0.0000 C   0  0  0  0  0  0  0  0  0  0  0  0
    5.0456   -4.1678    0.0000 C   0  0  0  0  0  0  0  0  0  0  0  0
    5.7653   -3.7644    0.0000 C   0  0  0  0  0  0  0  0  0  0  0  0
    5.7653   -5.4094    0.0000 C   0  0  0  0  0  0  0  0  0  0  0  0
    3.6458   -4.1678    0.0000 C   0  0  0  0  0  0  0  0  0  0  0  0
    3.6458   -5.0061    0.0000 C   0  0  0  0  0  0  0  0  0  0  0  0
    6.4771   -4.1678    0.0000 C   0  0  0  0  0  0  0  0  0  0  0  0
    4.3418   -5.4094    0.0000 C   0  0  0  0  0  0  0  0  0  0  0  0
    4.3418   -3.7644    0.0000 C   0  0  0  0  0  0  0  0  0  0  0  0
    6.4771   -5.0061    0.0000 C   0  0  0  0  0  0  0  0  0  0  0  0
    2.2144   -5.0061    0.0000 C   0  0  0  0  0  0  0  0  0  0  0  0
    2.9262   -3.7644    0.0000 C   0  0  0  0  0  0  0  0  0  0  0  0
    2.9262   -5.4094    0.0000 C   0  0  0  0  0  0  0  0  0  0  0  0
    2.2144   -4.1678    0.0000 C   0  0  0  0  0  0  0  0  0  0  0  0
    2.9262   -2.5307    0.0000 O   0  0  0  0  0  0  0  0  0  0  0  0
    1.4789   -5.4252    0.0000 C   0  0  0  0  0  0  0  0  0  0  0  0
    5.7653   -6.2398    0.0000 O   0  0  0  0  0  0  0  0  0  0  0  0
    5.7653   -2.9420    0.0000 O   0  0  0  0  0  0  0  0  0  0  0  0
    7.1967   -3.7644    0.0000 C   0  0  0  0  0  0  0  0  0  0  0  0
    0.7592   -5.0061    0.0000 O   0  0  0  0  0  0  0  0  0  0  0  0
    4.3418   -6.2398    0.0000 O   0  0  0  0  0  0  0  0  0  0  0  0
    4.3418   -2.9420    0.0000 O   0  0  0  0  0  0  0  0  0  0  0  0
    1.3523   -4.4209    0.0000 O   0  0  0  0  0  0  0  0  0  0  0  0
    7.1967   -5.4094    0.0000 C   0  0  0  0  0  0  0  0  0  0  0  0
    7.1967   -2.9420    0.0000 O   0  0  0  0  0  0  0  0  0  0  0  0
    7.8768   -5.0061    0.0000 C   0  0  0  0  0  0  0  0  0  0  0  0
    7.8768   -4.1678    0.0000 C   0  0  0  0  0  0  0  0  0  0  0  0
    1.4789   -6.2636    0.0000 C   0  0  0  0  0  0  0  0  0  0  0  0
    7.9085   -2.5307    0.0000 C   0  0  0  0  0  0  0  0  0  0  0  0
    2.1986   -2.0958    0.0000 C   0  0  0  0  0  0  0  0  0  0  0  0
    1.4631   -2.5307    0.0000 C   0  0  0  0  0  0  0  0  0  0  0  0
    2.1986   -1.2575    0.0000 O   0  0  0  0  0  0  0  0  0  0  0  0
    0.7434   -2.0958    0.0000 C   0  0  0  0  0  0  0  0  0  0  0  0
    1.4631   -0.8383    0.0000 C   0  0  0  0  0  0  0  0  0  0  0  0
    0.7434   -1.2575    0.0000 C   0  0  0  0  0  0  0  0  0  0  0  0
    0.0000   -2.5307    0.0000 N   0  0  0  0  0  0  0  0  0  0  0  0
    0.0000   -0.8383    0.0000 O   0  0  0  0  0  0  0  0  0  0  0  0
    1.4631    0.0000    0.0000 C   0  0  0  0  0  0  0  0  0  0  0  0
    3.2030   -6.2636    0.0000 Cl  0  0  0  0  0  0  0  0  0  0  0  0
  1  2  2  0
  1  4  1  0
  1  8  1  0
  2  3  1  0
  2  9  1  0
  3 18  2  0
  3  7  1  0
  4 10  1  0
  4 17  2  0
  5  6  1  0
  5 12  1  0
  5  9  2  0
  6  8  2  0
  6 13  1  0
  7 10  2  0
  7 19  1  0
  8 21  1  0
  9 22  1  0
 10 24  1  0
 11 13  1  0
 11 14  1  0
 11 16  1  0
 11 23  1  6
 12 15  1  6
 12 14  1  0
 30 15  1  1
 16 20  2  0
 16 28  1  0
 19 25  1  0
 19 27  2  0
 24 26  2  0
 25 29  1  0
 26 27  1  0
 30 31  1  0
 30 32  1  0
 31 33  1  0
 32 34  1  0
 33 35  1  0
 33 36  1  6
 34 35  1  0
 34 38  1  6
 35 37  1  6
M  END
>  <Formula>  (106) 
C27H30ClNO10

>  <FW>  (106) 
563.9808 (527.5199+36.4609)

>  <DSSTox_CID>  (106) 
13382

>  <NR-Aromatase>  (106) 
1

>  <NR-AR>  (106) 
0

>  <NR-AR-LBD>  (106) 
1

>  <NR-ER-LBD>  (106) 
1

>  <SR-ATAD5>  (106) 
1

>  <SR-p53>  (106) 
1

$$$$
NCGC00159344-02
     RDKit          2D

 37 41  0  0  1  0  0  0  0  0999 V2000
    2.8520   -1.2375    0.0000 C   0  0  0  0  0  0  0  0  0  0  0  0
    2.8520   -2.0697    0.0000 C   0  0  0  0  0  0  0  0  0  0  0  0
    2.1336   -2.4750    0.0000 C   0  0  0  0  0  0  0  0  0  0  0  0
    2.1336   -0.8250    0.0000 C   0  0  0  0  0  0  0  0  0  0  0  0
    4.2602   -2.0697    0.0000 C   0  0  0  0  0  0  0  0  0  0  0  0
    4.2602   -1.2375    0.0000 C   0  0  0  0  0  0  0  0  0  0  0  0
    1.4224   -2.0697    0.0000 C   0  0  0  0  0  0  0  0  0  0  0  0
    3.5561   -0.8250    0.0000 C   0  0  0  0  0  0  0  0  0  0  0  0
    3.5561   -2.4750    0.0000 C   0  0  0  0  0  0  0  0  0  0  0  0
    1.4224   -1.2375    0.0000 C   0  0  0  0  0  0  0  0  0  0  0  0
    5.6897   -1.2375    0.0000 C   0  0  0  0  0  0  0  0  0  0  0  0
    4.9643   -2.4750    0.0000 C   0  0  0  0  0  0  0  0  0  0  0  0
    4.9643   -0.8250    0.0000 C   0  0  0  0  0  0  0  0  0  0  0  0
    5.6897   -2.0697    0.0000 C   0  0  0  0  0  0  0  0  0  0  0  0
    4.9643   -3.7766    0.0000 O   0  0  0  0  0  0  0  0  0  0  0  0
    6.4081   -0.8250    0.0000 C   0  0  0  0  0  0  0  0  0  0  0  0
    2.1336    0.0000    0.0000 O   0  0  0  0  0  0  0  0  0  0  0  0
    2.1336   -3.2929    0.0000 O   0  0  0  0  0  0  0  0  0  0  0  0
    0.7183   -2.4750    0.0000 C   0  0  0  0  0  0  0  0  0  0  0  0
    7.1121   -1.2375    0.0000 O   0  0  0  0  0  0  0  0  0  0  0  0
    3.5561    0.0000    0.0000 O   0  0  0  0  0  0  0  0  0  0  0  0
    3.5561   -3.2929    0.0000 O   0  0  0  0  0  0  0  0  0  0  0  0
    6.5077   -1.7780    0.0000 O   0  0  0  0  0  0  0  0  0  0  0  0
    0.7183   -0.8250    0.0000 C   0  0  0  0  0  0  0  0  0  0  0  0
    0.7183   -3.2929    0.0000 O   0  0  0  0  0  0  0  0  0  0  0  0
    0.0000   -1.2375    0.0000 C   0  0  0  0  0  0  0  0  0  0  0  0
    0.0000   -2.0697    0.0000 C   0  0  0  0  0  0  0  0  0  0  0  0
    6.4081    0.0000    0.0000 C   0  0  0  0  0  0  0  0  0  0  0  0
    4.2602   -4.6016    0.0000 C   0  0  0  0  0  0  0  0  0  0  0  0
    4.2602   -5.4266    0.0000 C   0  0  0  0  0  0  0  0  0  0  0  0
    3.5490   -4.1820    0.0000 O   0  0  0  0  0  0  0  0  0  0  0  0
    3.5490   -5.8533    0.0000 C   0  0  0  0  0  0  0  0  0  0  0  0
    2.8235   -4.6016    0.0000 C   0  0  0  0  0  0  0  0  0  0  0  0
    2.8235   -5.4266    0.0000 C   0  0  0  0  0  0  0  0  0  0  0  0
    3.5490   -6.6783    0.0000 N   0  0  0  0  0  0  0  0  0  0  0  0
    2.1052   -5.8533    0.0000 O   0  0  0  0  0  0  0  0  0  0  0  0
    2.1052   -4.1820    0.0000 C   0  0  0  0  0  0  0  0  0  0  0  0
  1  2  2  0
  1  4  1  0
  1  8  1  0
  2  3  1  0
  2  9  1  0
  3 18  2  0
  3  7  1  0
  4 10  1  0
  4 17  2  0
  5  6  1  0
  5 12  1  0
  5  9  2  0
  6  8  2  0
  6 13  1  0
  7 10  2  0
  7 19  1  0
  8 21  1  0
  9 22  1  0
 10 24  1  0
 11 13  1  0
 11 14  1  0
 11 16  1  0
 11 23  1  6
 12 15  1  6
 12 14  1  0
 29 15  1  1
 16 20  2  0
 16 28  1  0
 19 25  1  0
 19 27  2  0
 24 26  2  0
 26 27  1  0
 29 30  1  0
 29 31  1  0
 30 32  1  0
 31 33  1  0
 32 34  1  0
 32 35  1  6
 33 34  1  0
 33 37  1  6
 34 36  1  6
M  END
>  <Formula>  (107) 
C26H27NO10

>  <FW>  (107) 
513.4933

>  <DSSTox_CID>  (107) 
2742

>  <NR-Aromatase>  (107) 
1

>  <NR-AR>  (107) 
0

>  <NR-AR-LBD>  (107) 
1

>  <NR-ER-LBD>  (107) 
1

>  <SR-ATAD5>  (107) 
1

>  <SR-MMP>  (107) 
1

>  <SR-p53>  (107) 
1

$$$$
NCGC00160675-01
     RDKit          2D

 37 41  0  0  1  0  0  0  0  0999 V2000
    2.8520   -1.2375    0.0000 C   0  0  0  0  0  0  0  0  0  0  0  0
    2.8520   -2.0697    0.0000 C   0  0  0  0  0  0  0  0  0  0  0  0
    2.1336   -2.4750    0.0000 C   0  0  0  0  0  0  0  0  0  0  0  0
    2.1336   -0.8250    0.0000 C   0  0  0  0  0  0  0  0  0  0  0  0
    4.2602   -2.0697    0.0000 C   0  0  0  0  0  0  0  0  0  0  0  0
    4.2602   -1.2375    0.0000 C   0  0  0  0  0  0  0  0  0  0  0  0
    1.4224   -2.0697    0.0000 C   0  0  0  0  0  0  0  0  0  0  0  0
    3.5561   -0.8250    0.0000 C   0  0  0  0  0  0  0  0  0  0  0  0
    3.5561   -2.4750    0.0000 C   0  0  0  0  0  0  0  0  0  0  0  0
    1.4224   -1.2375    0.0000 C   0  0  0  0  0  0  0  0  0  0  0  0
    5.6897   -1.2375    0.0000 C   0  0  0  0  0  0  0  0  0  0  0  0
    4.9643   -2.4750    0.0000 C   0  0  0  0  0  0  0  0  0  0  0  0
    4.9643   -0.8250    0.0000 C   0  0  0  0  0  0  0  0  0  0  0  0
    5.6897   -2.0697    0.0000 C   0  0  0  0  0  0  0  0  0  0  0  0
    4.9643   -3.7766    0.0000 O   0  0  0  0  0  0  0  0  0  0  0  0
    6.4081   -0.8250    0.0000 C   0  0  0  0  0  0  0  0  0  0  0  0
    2.1336    0.0000    0.0000 O   0  0  0  0  0  0  0  0  0  0  0  0
    2.1336   -3.2929    0.0000 O   0  0  0  0  0  0  0  0  0  0  0  0
    0.7183   -2.4750    0.0000 C   0  0  0  0  0  0  0  0  0  0  0  0
    7.1121   -1.2375    0.0000 O   0  0  0  0  0  0  0  0  0  0  0  0
    3.5561    0.0000    0.0000 O   0  0  0  0  0  0  0  0  0  0  0  0
    3.5561   -3.2929    0.0000 O   0  0  0  0  0  0  0  0  0  0  0  0
    6.5077   -1.7780    0.0000 O   0  0  0  0  0  0  0  0  0  0  0  0
    0.7183   -0.8250    0.0000 C   0  0  0  0  0  0  0  0  0  0  0  0
    0.7183   -3.2929    0.0000 O   0  0  0  0  0  0  0  0  0  0  0  0
    0.0000   -1.2375    0.0000 C   0  0  0  0  0  0  0  0  0  0  0  0
    0.0000   -2.0697    0.0000 C   0  0  0  0  0  0  0  0  0  0  0  0
    6.4081    0.0000    0.0000 C   0  0  0  0  0  0  0  0  0  0  0  0
    4.2602   -4.6016    0.0000 C   0  0  0  0  0  0  0  0  0  0  0  0
    4.2602   -5.4266    0.0000 C   0  0  0  0  0  0  0  0  0  0  0  0
    3.5490   -4.1820    0.0000 O   0  0  0  0  0  0  0  0  0  0  0  0
    3.5490   -5.8533    0.0000 C   0  0  0  0  0  0  0  0  0  0  0  0
    2.8235   -4.6016    0.0000 C   0  0  0  0  0  0  0  0  0  0  0  0
    2.8235   -5.4266    0.0000 C   0  0  0  0  0  0  0  0  0  0  0  0
    3.5490   -6.6783    0.0000 N   0  0  0  0  0  0  0  0  0  0  0  0
    2.1052   -5.8533    0.0000 O   0  0  0  0  0  0  0  0  0  0  0  0
    2.1052   -4.1820    0.0000 C   0  0  0  0  0  0  0  0  0  0  0  0
  1  2  2  0
  1  4  1  0
  1  8  1  0
  2  3  1  0
  2  9  1  0
  3 18  2  0
  3  7  1  0
  4 10  1  0
  4 17  2  0
  5  6  1  0
  5 12  1  0
  5  9  2  0
  6  8  2  0
  6 13  1  0
  7 10  2  0
  7 19  1  0
  8 21  1  0
  9 22  1  0
 10 24  1  0
 11 13  1  0
 11 14  1  0
 11 16  1  0
 11 23  1  6
 12 15  1  6
 12 14  1  0
 29 15  1  1
 16 20  2  0
 16 28  1  0
 19 25  1  0
 19 27  2  0
 24 26  2  0
 26 27  1  0
 29 30  1  0
 29 31  1  0
 30 32  1  0
 31 33  1  0
 32 34  1  0
 32 35  1  6
 33 34  1  0
 33 37  1  6
 34 36  1  6
M  END
>  <Formula>  (108) 
C26H27NO10

>  <FW>  (108) 
513.4933

>  <DSSTox_CID>  (108) 
2742

>  <NR-Aromatase>  (108) 
1

>  <NR-AR>  (108) 
0

>  <NR-AR-LBD>  (108) 
1

>  <NR-ER-LBD>  (108) 
1

>  <SR-ATAD5>  (108) 
1

>  <SR-MMP>  (108) 
1

>  <SR-p53>  (108) 
1

$$$$
NCGC00093976-03
     RDKit          2D

 37 40  0  0  1  0  0  0  0  0999 V2000
    7.8574   -1.4301    0.0000 C   0  0  0  0  0  0  0  0  0  0  0  0
    7.8574   -2.2551    0.0000 C   0  0  0  0  0  0  0  0  0  0  0  0
    7.1503   -1.0136    0.0000 C   0  0  0  0  0  0  0  0  0  0  0  0
    7.1503   -2.6637    0.0000 C   0  0  0  0  0  0  0  0  0  0  0  0
    6.4274   -1.4301    0.0000 C   0  0  0  0  0  0  0  0  0  0  0  0
    6.4274   -2.2551    0.0000 C   0  0  0  0  0  0  0  0  0  0  0  0
    5.7202   -1.0136    0.0000 C   0  0  0  0  0  0  0  0  0  0  0  0
    5.0052   -1.4301    0.0000 C   0  0  0  0  0  0  0  0  0  0  0  0
    5.7202   -2.6637    0.0000 C   0  0  0  0  0  0  0  0  0  0  0  0
    5.0052   -2.2551    0.0000 C   0  0  0  0  0  0  0  0  0  0  0  0
    4.2902   -1.0136    0.0000 C   0  0  0  0  0  0  0  0  0  0  0  0
    3.5673   -1.4301    0.0000 C   0  0  0  0  0  0  0  0  0  0  0  0
    4.2902   -2.6637    0.0000 C   0  0  0  0  0  0  0  0  0  0  0  0
    3.5673   -2.2551    0.0000 C   0  0  0  0  0  0  0  0  0  0  0  0
    5.7202   -0.1886    0.0000 O   0  0  0  0  0  0  0  0  0  0  0  0
    5.7202   -3.4887    0.0000 O   0  0  0  0  0  0  0  0  0  0  0  0
    4.2902   -0.1886    0.0000 O   0  0  0  0  0  0  0  0  0  0  0  0
    4.2902   -3.4887    0.0000 O   0  0  0  0  0  0  0  0  0  0  0  0
    2.8522   -1.0136    0.0000 C   0  0  0  0  0  0  0  0  0  0  0  0
    2.1372   -1.4301    0.0000 C   0  0  0  0  0  0  0  0  0  0  0  0
    2.8522   -2.6637    0.0000 C   0  0  0  0  0  0  0  0  0  0  0  0
    2.1372   -2.2551    0.0000 C   0  0  0  0  0  0  0  0  0  0  0  0
    2.8522   -3.4887    0.0000 O   0  0  0  0  0  0  0  0  0  0  0  0
    1.7286   -0.6993    0.0000 C   0  0  0  0  0  0  0  0  0  0  0  0
    0.9036   -0.6993    0.0000 O   0  0  0  0  0  0  0  0  0  0  0  0
    2.1372    0.0000    0.0000 C   0  0  0  0  0  0  0  0  0  0  0  0
    1.3122   -1.4301    0.0000 O   0  0  0  0  0  0  0  0  0  0  0  0
    2.1372   -3.9051    0.0000 C   0  0  0  0  0  0  0  0  0  0  0  0
    2.1372   -4.7302    0.0000 C   0  0  0  0  0  0  0  0  0  0  0  0
    1.4301   -3.4887    0.0000 O   0  0  0  0  0  0  0  0  0  0  0  0
    1.4301   -5.1387    0.0000 C   0  0  0  0  0  0  0  0  0  0  0  0
    0.7072   -3.9051    0.0000 C   0  0  0  0  0  0  0  0  0  0  0  0
    0.7072   -4.7302    0.0000 C   0  0  0  0  0  0  0  0  0  0  0  0
    0.0000   -3.4887    0.0000 C   0  0  0  0  0  0  0  0  0  0  0  0
    0.0000   -5.1387    0.0000 O   0  0  0  0  0  0  0  0  0  0  0  0
    1.4301   -5.9638    0.0000 N   0  0  0  0  0  0  0  0  0  0  0  0
    3.6615   -4.4395    0.0000 Cl  0  0  0  0  0  0  0  0  0  0  0  0
  1  2  2  0
  1  3  1  0
  2  4  1  0
  3  5  2  0
  4  6  2  0
  5  7  1  0
  5  6  1  0
  6  9  1  0
  7  8  1  0
  7 15  2  0
  8 11  2  0
  8 10  1  0
  9 10  1  0
  9 16  2  0
 10 13  2  0
 11 12  1  0
 11 17  1  0
 12 19  1  0
 12 14  2  0
 13 14  1  0
 13 18  1  0
 14 21  1  0
 19 20  1  0
 20 22  1  0
 20 24  1  0
 20 27  1  1
 21 22  1  0
 21 23  1  1
 28 23  1  1
 24 25  2  0
 24 26  1  0
 28 29  1  0
 28 30  1  0
 29 31  1  0
 30 32  1  0
 31 33  1  0
 31 36  1  6
 32 33  1  0
 32 34  1  6
 33 35  1  6
M  END
>  <Formula>  (109) 
C26H28ClNO9

>  <FW>  (109) 
533.9548 (497.4939+36.4609)

>  <DSSTox_CID>  (109) 
27775

>  <NR-Aromatase>  (109) 
1

>  <NR-AR>  (109) 
0

>  <NR-AR-LBD>  (109) 
1

>  <NR-ER-LBD>  (109) 
1

>  <SR-ATAD5>  (109) 
1

>  <SR-MMP>  (109) 
1

>  <SR-p53>  (109) 
1

$$$$
NCGC00064532-02
     RDKit          2D

 35 38  0  0  1  0  0  0  0  0999 V2000
    3.1350   -4.5336    0.0000 C   0  0  0  0  0  0  0  0  0  0  0  0
    3.1350   -3.7008    0.0000 C   0  0  0  0  0  0  0  0  0  0  0  0
    3.8500   -3.2922    0.0000 N   0  0  0  0  0  0  0  0  0  0  0  0
    3.8500   -4.9343    0.0000 C   0  0  0  0  0  0  0  0  0  0  0  0
    4.5650   -4.5336    0.0000 C   0  0  0  0  0  0  0  0  0  0  0  0
    4.5650   -3.7008    0.0000 C   0  0  0  0  0  0  0  0  0  0  0  0
    5.2721   -3.2922    0.0000 N   0  0  0  0  0  0  0  0  0  0  0  0
    5.9950   -3.7008    0.0000 C   0  0  0  0  0  0  0  0  0  0  0  0
    5.9950   -4.5336    0.0000 C   0  0  0  0  0  0  0  0  0  0  0  0
    5.2721   -4.9343    0.0000 C   0  0  0  0  0  0  0  0  0  0  0  0
    5.2721   -2.4672    0.0000 C   0  0  0  0  0  0  0  0  0  0  0  0
    4.5650   -2.0586    0.0000 C   0  0  0  0  0  0  0  0  0  0  0  0
    4.5650   -1.2257    0.0000 C   0  0  0  0  0  0  0  0  0  0  0  0
    5.2721   -0.8250    0.0000 C   0  0  0  0  0  0  0  0  0  0  0  0
    5.9950   -1.2257    0.0000 C   0  0  0  0  0  0  0  0  0  0  0  0
    5.9950   -2.0586    0.0000 C   0  0  0  0  0  0  0  0  0  0  0  0
    6.7022   -2.4672    0.0000 F   0  0  0  0  0  0  0  0  0  0  0  0
    5.2721    0.0000    0.0000 F   0  0  0  0  0  0  0  0  0  0  0  0
    5.2721   -5.7593    0.0000 O   0  0  0  0  0  0  0  0  0  0  0  0
    6.7022   -4.9343    0.0000 C   0  0  0  0  0  0  0  0  0  0  0  0
    7.4250   -4.5336    0.0000 O   0  0  0  0  0  0  0  0  0  0  0  0
    6.7022   -5.7593    0.0000 O   0  0  0  0  0  0  0  0  0  0  0  0
    2.4357   -4.9343    0.0000 F   0  0  0  0  0  0  0  0  0  0  0  0
    2.4357   -3.2922    0.0000 N   0  0  0  0  0  0  0  0  0  0  0  0
    1.6736   -3.6221    0.0000 C   0  0  0  0  0  0  0  0  0  0  0  0
    2.3336   -2.4750    0.0000 C   0  0  0  0  0  0  0  0  0  0  0  0
    1.5322   -2.2943    0.0000 C   0  0  0  0  0  0  0  0  0  0  0  0
    1.1314   -3.0171    0.0000 C   0  0  0  0  0  0  0  0  0  0  0  0
    0.7229   -2.2943    0.0000 C   0  0  0  0  0  0  0  0  0  0  0  0
    0.0000   -1.8936    0.0000 N   0  0  0  0  0  0  0  0  0  0  0  0
    3.1979   -6.9143    0.0000 S   0  0  0  0  0  0  0  0  0  0  0  0
    3.1979   -7.8571    0.0000 O   0  0  0  0  0  0  0  0  0  0  0  0
    4.0150   -6.9143    0.0000 O   0  0  0  0  0  0  0  0  0  0  0  0
    3.1979   -6.0972    0.0000 O   0  0  0  0  0  0  0  0  0  0  0  0
    2.3336   -6.9143    0.0000 C   0  0  0  0  0  0  0  0  0  0  0  0
  1  4  2  0
  1 23  1  0
  1  2  1  0
  2 24  1  0
  2  3  2  0
  3  6  1  0
  4  5  1  0
  5 10  1  0
  5  6  2  0
  6  7  1  0
  7  8  1  0
  7 11  1  0
  8  9  2  0
  9 20  1  0
  9 10  1  0
 10 19  2  0
 11 16  1  0
 11 12  2  0
 12 13  1  0
 13 14  2  0
 14 18  1  0
 14 15  1  0
 15 16  2  0
 16 17  1  0
 20 21  1  0
 20 22  2  0
 24 25  1  0
 24 26  1  0
 28 25  1  6
 27 26  1  6
 27 28  1  0
 27 29  1  0
 28 29  1  0
 29 30  1  1
 31 32  2  0
 31 33  1  0
 31 34  2  0
 31 35  1  0
M  END
>  <Formula>  (110) 
C21H19F3N4O6S

>  <FW>  (110) 
512.4590 (416.3533+96.1057)

>  <DSSTox_CID>  (110) 
25701

>  <NR-Aromatase>  (110) 
1

>  <NR-AR>  (110) 
0

>  <NR-AR-LBD>  (110) 
1

>  <NR-PPAR-gamma>  (110) 
1

>  <NR-AhR>  (110) 
0

>  <SR-ATAD5>  (110) 
0

>  <SR-p53>  (110) 
1

$$$$
NCGC00024246-05
     RDKit          2D

 38 42  0  0  1  0  0  0  0  0999 V2000
    2.3886   -5.9401    0.0000 C   0  0  0  0  0  0  0  0  0  0  0  0
    1.8622   -5.3115    0.0000 C   0  0  0  0  0  0  0  0  0  0  0  0
    1.0450   -5.4529    0.0000 O   0  0  0  0  0  0  0  0  0  0  0  0
    2.1450   -4.5336    0.0000 C   0  0  0  0  0  0  0  0  0  0  0  0
    1.3278   -4.3922    0.0000 O   0  0  0  0  0  0  0  0  0  0  0  0
    2.1450   -3.7086    0.0000 C   0  0  0  0  0  0  0  0  0  0  0  0
    2.8600   -3.2922    0.0000 C   0  0  0  0  0  0  0  0  0  0  0  0
    2.8600   -2.4750    0.0000 O   0  0  0  0  0  0  0  0  0  0  0  0
    2.1450   -2.0586    0.0000 C   0  0  0  0  0  0  0  0  0  0  0  0
    1.4300   -2.4750    0.0000 C   0  0  0  0  0  0  0  0  0  0  0  0
    0.7150   -2.0586    0.0000 C   0  0  0  0  0  0  0  0  0  0  0  0
    0.0000   -2.4750    0.0000 N   0  0  0  0  0  0  0  0  0  0  0  0
    0.7150   -1.2336    0.0000 C   0  0  0  0  0  0  0  0  0  0  0  0
    0.0000   -0.8250    0.0000 O   0  0  0  0  0  0  0  0  0  0  0  0
    1.4300   -0.8250    0.0000 C   0  0  0  0  0  0  0  0  0  0  0  0
    1.4300    0.0000    0.0000 C   0  0  0  0  0  0  0  0  0  0  0  0
    2.1450   -1.2336    0.0000 O   0  0  0  0  0  0  0  0  0  0  0  0
    3.5750   -3.7086    0.0000 C   0  0  0  0  0  0  0  0  0  0  0  0
    4.2822   -3.2922    0.0000 C   0  0  0  0  0  0  0  0  0  0  0  0
    4.2822   -2.4750    0.0000 O   0  0  0  0  0  0  0  0  0  0  0  0
    4.9972   -3.7086    0.0000 C   0  0  0  0  0  0  0  0  0  0  0  0
    5.7122   -3.2922    0.0000 C   0  0  0  0  0  0  0  0  0  0  0  0
    5.7122   -2.4750    0.0000 O   0  0  0  0  0  0  0  0  0  0  0  0
    6.4272   -3.7086    0.0000 C   0  0  0  0  0  0  0  0  0  0  0  0
    7.1422   -3.2922    0.0000 C   0  0  0  0  0  0  0  0  0  0  0  0
    7.1422   -2.4750    0.0000 O   0  0  0  0  0  0  0  0  0  0  0  0
    7.8572   -2.0586    0.0000 C   0  0  0  0  0  0  0  0  0  0  0  0
    7.8572   -3.7086    0.0000 C   0  0  0  0  0  0  0  0  0  0  0  0
    7.8572   -4.5336    0.0000 C   0  0  0  0  0  0  0  0  0  0  0  0
    7.1422   -4.9422    0.0000 C   0  0  0  0  0  0  0  0  0  0  0  0
    6.4272   -4.5336    0.0000 C   0  0  0  0  0  0  0  0  0  0  0  0
    5.7122   -4.9422    0.0000 C   0  0  0  0  0  0  0  0  0  0  0  0
    5.7122   -5.7672    0.0000 O   0  0  0  0  0  0  0  0  0  0  0  0
    4.9972   -4.5336    0.0000 C   0  0  0  0  0  0  0  0  0  0  0  0
    4.2822   -4.9422    0.0000 C   0  0  0  0  0  0  0  0  0  0  0  0
    4.2822   -5.7672    0.0000 O   0  0  0  0  0  0  0  0  0  0  0  0
    3.5750   -4.5336    0.0000 C   0  0  0  0  0  0  0  0  0  0  0  0
    2.8600   -4.9422    0.0000 C   0  0  0  0  0  0  0  0  0  0  0  0
  1  2  1  0
  2  3  2  0
  4  2  1  0
  4  5  1  6
  4  6  1  0
  4 38  1  0
  6  7  1  0
  7  8  1  6
  7 18  1  0
  9  8  1  1
  9 10  1  0
  9 17  1  0
 10 11  1  0
 11 12  1  6
 11 13  1  0
 13 14  1  6
 13 15  1  0
 15 16  1  6
 15 17  1  0
 18 19  1  0
 18 37  2  0
 19 20  1  0
 19 21  2  0
 21 22  1  0
 21 34  1  0
 22 23  2  0
 22 24  1  0
 24 25  2  0
 24 31  1  0
 25 26  1  0
 25 28  1  0
 26 27  1  0
 28 29  2  0
 29 30  1  0
 30 31  2  0
 31 32  1  0
 32 33  2  0
 32 34  1  0
 34 35  2  0
 35 36  1  0
 35 37  1  0
 37 38  1  0
M  END
>  <Formula>  (111) 
C27H29NO10

>  <FW>  (111) 
527.5199

>  <DSSTox_CID>  (111) 
2883

>  <NR-Aromatase>  (111) 
1

>  <NR-AR>  (111) 
0

>  <NR-AR-LBD>  (111) 
1

>  <NR-ER>  (111) 
1

>  <NR-ER-LBD>  (111) 
1

>  <SR-ATAD5>  (111) 
1

>  <SR-MMP>  (111) 
1

>  <SR-p53>  (111) 
1

$$$$
NCGC00164738-01
     RDKit          2D

 51 55  0  0  1  0  0  0  0  0999 V2000
    1.4249   -2.8390    0.0000 C   0  0  0  0  0  0  0  0  0  0  0  0
    1.4249   -3.6640    0.0000 C   0  0  0  0  0  0  0  0  0  0  0  0
    0.7071   -2.4212    0.0000 C   0  0  0  0  0  0  0  0  0  0  0  0
    0.7071   -4.0711    0.0000 C   0  0  0  0  0  0  0  0  0  0  0  0
    0.0000   -2.8390    0.0000 C   0  0  0  0  0  0  0  0  0  0  0  0
    0.0000   -3.6640    0.0000 C   0  0  0  0  0  0  0  0  0  0  0  0
    2.1427   -2.4212    0.0000 C   0  0  0  0  0  0  0  0  0  0  0  0
    2.8605   -2.8390    0.0000 C   0  0  0  0  0  0  0  0  0  0  0  0
    2.1427   -4.0711    0.0000 C   0  0  0  0  0  0  0  0  0  0  0  0
    2.8605   -3.6640    0.0000 C   0  0  0  0  0  0  0  0  0  0  0  0
    3.5783   -2.4212    0.0000 C   0  0  0  0  0  0  0  0  0  0  0  0
    4.2854   -2.8390    0.0000 C   0  0  0  0  0  0  0  0  0  0  0  0
    3.5783   -4.0711    0.0000 C   0  0  0  0  0  0  0  0  0  0  0  0
    4.2854   -3.6640    0.0000 C   0  0  0  0  0  0  0  0  0  0  0  0
    5.0139   -2.4212    0.0000 C   0  0  0  0  0  0  0  0  0  0  0  0
    5.7209   -2.8390    0.0000 C   0  0  0  0  0  0  0  0  0  0  0  0
    5.0139   -4.0711    0.0000 C   0  0  0  0  0  0  0  0  0  0  0  0
    5.7209   -3.6640    0.0000 C   0  0  0  0  0  0  0  0  0  0  0  0
    2.1427   -1.5963    0.0000 O   0  0  0  0  0  0  0  0  0  0  0  0
    0.7071   -4.9067    0.0000 O   0  0  0  0  0  0  0  0  0  0  0  0
    0.0000   -5.3138    0.0000 C   0  0  0  0  0  0  0  0  0  0  0  0
    2.1427   -4.9067    0.0000 O   0  0  0  0  0  0  0  0  0  0  0  0
    3.5783   -1.5963    0.0000 O   0  0  0  0  0  0  0  0  0  0  0  0
    3.5783   -4.9067    0.0000 O   0  0  0  0  0  0  0  0  0  0  0  0
    5.0139   -4.9067    0.0000 O   0  0  0  0  0  0  0  0  0  0  0  0
    6.5566   -2.8390    0.0000 C   0  0  0  0  0  0  0  0  0  0  0  0
    6.1281   -2.1105    0.0000 O   0  0  0  0  0  0  0  0  0  0  0  0
    6.9637   -3.5676    0.0000 O   0  0  0  0  0  0  0  0  0  0  0  0
    6.9744   -2.1320    0.0000 C   0  0  0  0  0  0  0  0  0  0  0  0
    7.7993   -2.1320    0.0000 O   0  0  0  0  0  0  0  0  0  0  0  0
    8.2171   -1.4249    0.0000 C   0  0  0  0  0  0  0  0  0  0  0  0
    9.0421   -1.4249    0.0000 C   0  0  0  0  0  0  0  0  0  0  0  0
    7.8101   -0.7071    0.0000 O   0  0  0  0  0  0  0  0  0  0  0  0
    9.4706   -0.7178    0.0000 C   0  0  0  0  0  0  0  0  0  0  0  0
   10.2956   -0.7285    0.0000 C   0  0  0  0  0  0  0  0  0  0  0  0
   10.7134    0.0000    0.0000 C   0  0  0  0  0  0  0  0  0  0  0  0
    5.7209   -5.3245    0.0000 C   0  0  0  0  0  0  0  0  0  0  0  0
    6.4494   -4.9067    0.0000 O   0  0  0  0  0  0  0  0  0  0  0  0
    5.7209   -6.1388    0.0000 C   0  0  0  0  0  0  0  0  0  0  0  0
    7.1565   -5.3245    0.0000 C   0  0  0  0  0  0  0  0  0  0  0  0
    6.4494   -6.5566    0.0000 C   0  0  0  0  0  0  0  0  0  0  0  0
    7.1565   -6.1495    0.0000 C   0  0  0  0  0  0  0  0  0  0  0  0
    7.8851   -6.5566    0.0000 O   0  0  0  0  0  0  0  0  0  0  0  0
    7.8851   -4.9067    0.0000 C   0  0  0  0  0  0  0  0  0  0  0  0
    6.4494   -7.3815    0.0000 N   0  0  0  0  0  0  0  0  0  0  0  0
    5.7316   -7.7993    0.0000 C   0  0  0  0  0  0  0  0  0  0  0  0
    5.0139   -7.3815    0.0000 O   0  0  0  0  0  0  0  0  0  0  0  0
    5.7316   -8.6350    0.0000 C   0  0  0  0  0  0  0  0  0  0  0  0
    4.9067   -8.6350    0.0000 F   0  0  0  0  0  0  0  0  0  0  0  0
    6.5673   -8.6350    0.0000 F   0  0  0  0  0  0  0  0  0  0  0  0
    5.7316   -9.4599    0.0000 F   0  0  0  0  0  0  0  0  0  0  0  0
  1  3  2  0
  1  7  1  0
  1  2  1  0
  2  4  2  0
  2  9  1  0
  3  5  1  0
  4  6  1  0
  4 20  1  0
  5  6  2  0
  7  8  1  0
  7 19  2  0
  8 11  2  0
  8 10  1  0
  9 10  1  0
  9 22  2  0
 10 13  2  0
 11 12  1  0
 11 23  1  0
 12 15  1  0
 12 14  2  0
 13 14  1  0
 13 24  1  0
 14 17  1  0
 15 16  1  0
 16 18  1  0
 16 26  1  0
 16 27  1  6
 17 18  1  0
 17 25  1  6
 20 21  1  0
 37 25  1  6
 26 28  2  0
 26 29  1  0
 29 30  1  0
 30 31  1  0
 31 32  1  0
 31 33  2  0
 32 34  1  0
 34 35  1  0
 35 36  1  0
 37 38  1  0
 37 39  1  0
 38 40  1  0
 39 41  1  0
 40 42  1  0
 40 44  1  1
 41 42  1  0
 41 45  1  1
 42 43  1  1
 45 46  1  0
 46 47  2  0
 46 48  1  0
 48 49  1  0
 48 50  1  0
 48 51  1  0
M  END
>  <Formula>  (112) 
C34H36F3NO13

>  <FW>  (112) 
723.6437

>  <DSSTox_CID>  (112) 
26497

>  <NR-AR>  (112) 
0

>  <NR-AR-LBD>  (112) 
1

>  <NR-PPAR-gamma>  (112) 
0

>  <NR-AhR>  (112) 
0

>  <SR-ATAD5>  (112) 
1

>  <SR-MMP>  (112) 
1

>  <SR-p53>  (112) 
1

$$$$
NCGC00167571-01
     RDKit          2D

 41 44  0  0  1  0  0  0  0  0999 V2000
    4.2945   -1.7001    0.0000 C   0  0  0  0  0  0  0  0  0  0  0  0
    2.8814   -2.5281    0.0000 C   0  0  0  0  0  0  0  0  0  0  0  0
    2.1638   -2.9476    0.0000 C   0  0  0  0  0  0  0  0  0  0  0  0
    4.2945   -2.5281    0.0000 C   0  0  0  0  0  0  0  0  0  0  0  0
    3.5879   -2.9476    0.0000 C   0  0  0  0  0  0  0  0  0  0  0  0
    5.0893   -1.4462    0.0000 C   0  0  0  0  0  0  0  0  0  0  0  0
    2.1638   -3.7646    0.0000 C   0  0  0  0  0  0  0  0  0  0  0  0
    2.8814   -1.7001    0.0000 C   0  0  0  0  0  0  0  0  0  0  0  0
    3.5879   -1.2916    0.0000 C   0  0  0  0  0  0  0  0  0  0  0  0
    5.5751   -2.1196    0.0000 C   0  0  0  0  0  0  0  0  0  0  0  0
    1.4462   -2.5281    0.0000 C   0  0  0  0  0  0  0  0  0  0  0  0
    5.0893   -2.7710    0.0000 C   0  0  0  0  0  0  0  0  0  0  0  0
    1.4462   -4.1841    0.0000 C   0  0  0  0  0  0  0  0  0  0  0  0
    5.3101   -0.6403    0.0000 C   0  0  0  0  0  0  0  0  0  0  0  0
    3.5879   -3.7646    0.0000 C   0  0  0  0  0  0  0  0  0  0  0  0
    0.7397   -2.9476    0.0000 C   0  0  0  0  0  0  0  0  0  0  0  0
    0.7397   -3.7646    0.0000 C   0  0  0  0  0  0  0  0  0  0  0  0
    2.8814   -4.1841    0.0000 C   0  0  0  0  0  0  0  0  0  0  0  0
    2.8703   -3.2236    0.0000 F   0  0  0  0  0  0  0  0  0  0  0  0
    4.7250   -0.0442    0.0000 O   0  0  0  0  0  0  0  0  0  0  0  0
    0.0000   -4.1951    0.0000 O   0  0  0  0  0  0  0  0  0  0  0  0
    5.9173   -1.4462    0.0000 O   0  0  0  0  0  0  0  0  0  0  0  0
    4.2945   -0.8611    0.0000 C   0  0  0  0  0  0  0  0  0  0  0  0
    2.1417   -1.2806    0.0000 O   0  0  0  0  0  0  0  0  0  0  0  0
    2.1638   -2.1196    0.0000 C   0  0  0  0  0  0  0  0  0  0  0  0
    6.4031   -2.1086    0.0000 C   0  0  0  0  0  0  0  0  0  0  0  0
    6.1050   -0.4416    0.0000 C   0  0  0  0  0  0  0  0  0  0  0  0
    6.6901   -1.0267    0.0000 O   0  0  0  0  0  0  0  0  0  0  0  0
    7.4850   -0.8280    0.0000 C   0  0  0  0  0  0  0  0  0  0  0  0
    8.0591   -1.4131    0.0000 C   0  0  0  0  0  0  0  0  0  0  0  0
    8.8649   -1.2144    0.0000 C   0  0  0  0  0  0  0  0  0  0  0  0
    7.8382   -2.2080    0.0000 C   0  0  0  0  0  0  0  0  0  0  0  0
    9.4390   -1.7995    0.0000 C   0  0  0  0  0  0  0  0  0  0  0  0
    8.4233   -2.8041    0.0000 C   0  0  0  0  0  0  0  0  0  0  0  0
    9.2182   -2.5944    0.0000 C   0  0  0  0  0  0  0  0  0  0  0  0
    7.7168   -0.0331    0.0000 O   0  0  0  0  0  0  0  0  0  0  0  0
   10.2339   -1.6008    0.0000 S   0  0  0  0  0  0  0  0  0  0  0  0
   11.0398   -1.3910    0.0000 O   0  0  0  0  0  0  0  0  0  0  0  0
   10.0352   -0.7948    0.0000 O   0  0  0  0  0  0  0  0  0  0  0  0
   10.4436   -2.3957    0.0000 O   0  0  0  0  0  0  0  0  0  0  0  0
    8.9201    0.0000    0.0000 Na  0  0  0  0  0 15  0  0  0  0  0  0
  1  4  1  0
  1  6  1  0
  1  9  1  0
  1 23  1  1
  2  8  1  0
  2  3  1  0
  2 19  1  6
  2  5  1  0
  3  7  1  0
  3 11  1  0
  3 25  1  1
  4  5  1  0
  4 12  1  1
  5 15  1  6
  6 10  1  0
  6 14  1  0
  6 22  1  6
  7 13  2  0
  7 18  1  0
  8  9  1  0
  8 24  1  1
 10 26  1  6
 10 12  1  0
 11 16  2  0
 13 17  1  0
 14 20  2  0
 14 27  1  0
 15 18  1  0
 16 17  1  0
 17 21  2  0
 27 28  1  0
 28 29  1  0
 29 30  1  0
 29 36  2  0
 30 31  2  0
 30 32  1  0
 31 33  1  0
 32 34  2  0
 33 35  2  0
 33 37  1  0
 34 35  1  0
 37 38  1  0
 37 39  2  0
 37 40  2  0
M  CHG  2  38  -1  41   1
M  END
>  <Formula>  (113) 
C29H32FNaO9S

>  <FW>  (113) 
598.6122 (575.6229+22.9892)

>  <DSSTox_CID>  (113) 
26722

>  <NR-AR>  (113) 
1

>  <NR-AR-LBD>  (113) 
1

>  <NR-ER>  (113) 
1

>  <NR-ER-LBD>  (113) 
0

>  <NR-PPAR-gamma>  (113) 
0

>  <SR-MMP>  (113) 
0

>  <SR-p53>  (113) 
0

$$$$
NCGC00167536-01
     RDKit          2D

 40 43  0  0  0  0  0  0  0  0999 V2000
    0.0000   -3.1215    0.0000 N   0  0  0  0  0  0  0  0  0  0  0  0
    0.8255   -3.0361    0.0000 C   0  0  0  0  0  0  0  0  0  0  0  0
    1.2334   -2.3245    0.0000 C   0  0  0  0  0  0  0  0  0  0  0  0
    2.0399   -2.4953    0.0000 C   0  0  0  0  0  0  0  0  0  0  0  0
    2.1347   -3.3207    0.0000 N   0  0  0  0  0  0  0  0  0  0  0  0
    1.3852   -3.6528    0.0000 C   0  0  0  0  0  0  0  0  0  0  0  0
    2.8463   -3.7382    0.0000 C   0  0  0  0  0  0  0  0  0  0  0  0
    3.5674   -3.3207    0.0000 N   0  0  0  0  0  0  0  0  0  0  0  0
    4.2790   -3.7382    0.0000 C   0  0  0  0  0  0  0  0  0  0  0  0
    4.2790   -4.5541    0.0000 C   0  0  0  0  0  0  0  0  0  0  0  0
    3.5674   -4.9716    0.0000 C   0  0  0  0  0  0  0  0  0  0  0  0
    2.8463   -4.5541    0.0000 C   0  0  0  0  0  0  0  0  0  0  0  0
    2.1347   -4.9716    0.0000 F   0  0  0  0  0  0  0  0  0  0  0  0
    5.0001   -4.9716    0.0000 C   0  0  0  0  0  0  0  0  0  0  0  0
    5.0001   -5.7970    0.0000 O   0  0  0  0  0  0  0  0  0  0  0  0
    5.7116   -4.5541    0.0000 C   0  0  0  0  0  0  0  0  0  0  0  0
    5.7116   -3.7382    0.0000 C   0  0  0  0  0  0  0  0  0  0  0  0
    5.0001   -3.3207    0.0000 N   0  0  0  0  0  0  0  0  0  0  0  0
    5.0001   -2.4953    0.0000 C   0  0  0  0  0  0  0  0  0  0  0  0
    4.2790   -2.0778    0.0000 C   0  0  0  0  0  0  0  0  0  0  0  0
    4.2790   -1.2429    0.0000 C   0  0  0  0  0  0  0  0  0  0  0  0
    5.0001   -0.8349    0.0000 C   0  0  0  0  0  0  0  0  0  0  0  0
    5.0001    0.0000    0.0000 F   0  0  0  0  0  0  0  0  0  0  0  0
    5.7116   -1.2429    0.0000 C   0  0  0  0  0  0  0  0  0  0  0  0
    5.7116   -2.0778    0.0000 C   0  0  0  0  0  0  0  0  0  0  0  0
    6.4327   -2.4953    0.0000 F   0  0  0  0  0  0  0  0  0  0  0  0
    6.4327   -4.9716    0.0000 C   0  0  0  0  0  0  0  0  0  0  0  0
    7.1443   -4.5541    0.0000 O   0  0  0  0  0  0  0  0  0  0  0  0
    6.4327   -5.7970    0.0000 O   0  0  0  0  0  0  0  0  0  0  0  0
    8.3018   -1.5085    0.0000 C   0  0  0  0  0  0  0  0  0  0  0  0
    8.7382   -2.2012    0.0000 C   0  0  0  0  0  0  0  0  0  0  0  0
    8.3018   -2.9128    0.0000 C   0  0  0  0  0  0  0  0  0  0  0  0
    7.5143   -2.9128    0.0000 C   0  0  0  0  0  0  0  0  0  0  0  0
    7.0779   -2.2012    0.0000 C   0  0  0  0  0  0  0  0  0  0  0  0
    7.5143   -1.5085    0.0000 C   0  0  0  0  0  0  0  0  0  0  0  0
    8.7003   -0.7969    0.0000 S   0  0  0  0  0  0  0  0  0  0  0  0
    9.4878   -1.2334    0.0000 O   0  0  0  0  0  0  0  0  0  0  0  0
    9.0893   -0.1044    0.0000 O   0  0  0  0  0  0  0  0  0  0  0  0
    8.0266   -0.3985    0.0000 O   0  0  0  0  0  0  0  0  0  0  0  0
    7.1064   -3.6053    0.0000 C   0  0  0  0  0  0  0  0  0  0  0  0
  1  2  1  0
  2  3  1  0
  2  6  1  0
  3  4  1  0
  4  5  1  0
  5  6  1  0
  5  7  1  0
  7  8  2  0
  7 12  1  0
  8  9  1  0
  9 10  2  0
  9 18  1  0
 10 11  1  0
 10 14  1  0
 11 12  2  0
 12 13  1  0
 14 15  2  0
 14 16  1  0
 16 17  2  0
 16 27  1  0
 17 18  1  0
 18 19  1  0
 19 20  2  0
 19 25  1  0
 20 21  1  0
 21 22  2  0
 22 23  1  0
 22 24  1  0
 24 25  2  0
 25 26  1  0
 27 28  1  0
 27 29  2  0
 30 31  2  0
 30 35  1  0
 30 36  1  0
 31 32  1  0
 32 33  2  0
 33 34  1  0
 33 40  1  0
 34 35  2  0
 36 37  2  0
 36 38  1  0
 36 39  2  0
M  END
>  <Formula>  (114) 
C26H23F3N4O6S

>  <FW>  (114) 
576.5442 (404.3426+172.2016)

>  <DSSTox_CID>  (114) 
27820

>  <NR-Aromatase>  (114) 
0

>  <NR-AR>  (114) 
0

>  <NR-AR-LBD>  (114) 
1

>  <NR-ER>  (114) 
0

>  <NR-ER-LBD>  (114) 
0

>  <SR-ATAD5>  (114) 
0

>  <SR-MMP>  (114) 
0

>  <SR-p53>  (114) 
0

$$$$
NCGC00164615-01
     RDKit          2D

 32 36  0  0  0  0  0  0  0  0999 V2000
    0.0000   -1.4249    0.0000 O   0  0  0  0  0  0  0  0  0  0  0  0
    0.5608   -0.8182    0.0000 C   0  0  0  0  0  0  0  0  0  0  0  0
    1.3147   -1.1583    0.0000 C   0  0  0  0  0  0  0  0  0  0  0  0
    1.2227   -1.9857    0.0000 O   0  0  0  0  0  0  0  0  0  0  0  0
    0.4321   -2.1420    0.0000 C   0  0  0  0  0  0  0  0  0  0  0  0
    3.4567   -0.7354    0.0000 C   0  0  0  0  0  0  0  0  0  0  0  0
    2.7396   -1.1583    0.0000 N   0  0  0  0  0  0  0  0  0  0  0  0
    2.7396   -1.9857    0.0000 C   0  0  0  0  0  0  0  0  0  0  0  0
    3.4567   -2.3902    0.0000 C   0  0  0  0  0  0  0  0  0  0  0  0
    4.1737   -1.9857    0.0000 N   0  0  0  0  0  0  0  0  0  0  0  0
    4.1737   -1.1583    0.0000 C   0  0  0  0  0  0  0  0  0  0  0  0
    2.0317   -0.7354    0.0000 C   0  0  0  0  0  0  0  0  0  0  0  0
    4.9000   -2.3902    0.0000 C   0  0  0  0  0  0  0  0  0  0  0  0
    4.9000   -3.2360    0.0000 C   0  0  0  0  0  0  0  0  0  0  0  0
    5.6171   -3.6405    0.0000 C   0  0  0  0  0  0  0  0  0  0  0  0
    5.6171   -1.9857    0.0000 C   0  0  0  0  0  0  0  0  0  0  0  0
    4.1737   -3.6405    0.0000 F   0  0  0  0  0  0  0  0  0  0  0  0
    6.3341   -2.3902    0.0000 C   0  0  0  0  0  0  0  0  0  0  0  0
    6.3341   -3.2360    0.0000 C   0  0  0  0  0  0  0  0  0  0  0  0
    7.0512   -3.6405    0.0000 C   0  0  0  0  0  0  0  0  0  0  0  0
    7.7683   -3.2360    0.0000 C   0  0  0  0  0  0  0  0  0  0  0  0
    7.0512   -4.4679    0.0000 O   0  0  0  0  0  0  0  0  0  0  0  0
    8.4761   -3.6405    0.0000 C   0  0  0  0  0  0  0  0  0  0  0  0
    8.4761   -4.4679    0.0000 O   0  0  0  0  0  0  0  0  0  0  0  0
    9.1932   -3.2360    0.0000 O   0  0  0  0  0  0  0  0  0  0  0  0
    7.0512   -1.9857    0.0000 N   0  0  0  0  0  0  0  0  0  0  0  0
    7.7683   -2.3902    0.0000 C   0  0  0  0  0  0  0  0  0  0  0  0
    8.1728   -1.6732    0.0000 S   0  0  0  0  0  0  0  0  0  0  0  0
    7.4557   -1.2686    0.0000 C   0  0  0  0  0  0  0  0  0  0  0  0
    7.2534   -0.4688    0.0000 C   0  0  0  0  0  0  0  0  0  0  0  0
    0.3861    0.0000    0.0000 C   0  0  0  0  0  0  0  0  0  0  0  0
    0.0827   -2.9142    0.0000 O   0  0  0  0  0  0  0  0  0  0  0  0
  1  5  1  0
  1  2  1  0
  2 31  1  0
  2  3  2  0
  3  4  1  0
  3 12  1  0
  4  5  1  0
  5 32  2  0
  6 11  1  0
  6  7  1  0
  7  8  1  0
  7 12  1  0
  8  9  1  0
  9 10  1  0
 10 11  1  0
 10 13  1  0
 13 14  2  0
 13 16  1  0
 14 15  1  0
 14 17  1  0
 15 19  2  0
 16 18  2  0
 18 19  1  0
 18 26  1  0
 19 20  1  0
 20 21  1  0
 20 22  2  0
 21 27  2  0
 21 23  1  0
 23 24  1  0
 23 25  2  0
 26 27  1  0
 26 29  1  0
 27 28  1  0
 28 29  1  0
 29 30  1  0
M  END
>  <Formula>  (115) 
C21H20FN3O6S

>  <FW>  (115) 
461.4634

>  <DSSTox_CID>  (115) 
26480

>  <NR-AR>  (115) 
1

>  <NR-AR-LBD>  (115) 
1

>  <NR-ER>  (115) 
1

>  <NR-ER-LBD>  (115) 
1

>  <NR-PPAR-gamma>  (115) 
0

>  <NR-AhR>  (115) 
0

>  <SR-ATAD5>  (115) 
0

>  <SR-p53>  (115) 
0

$$$$
NCGC00183830-01
     RDKit          2D

 30 31  0  0  0  0  0  0  0  0999 V2000
    4.2796   -4.2602    0.0000 C   0  0  0  0  0  0  0  0  0  0  0  0
    3.5964   -3.8284    0.0000 C   0  0  0  0  0  0  0  0  0  0  0  0
    2.8488   -4.2602    0.0000 C   0  0  0  0  0  0  0  0  0  0  0  0
    2.8488   -5.0852    0.0000 C   0  0  0  0  0  0  0  0  0  0  0  0
    3.5964   -5.5042    0.0000 C   0  0  0  0  0  0  0  0  0  0  0  0
    4.2796   -5.0852    0.0000 C   0  0  0  0  0  0  0  0  0  0  0  0
    4.2796   -1.2439    0.0000 C   0  0  0  0  0  0  0  0  0  0  0  0
    3.5964   -0.8250    0.0000 N   0  0  0  0  0  0  0  0  0  0  0  0
    2.8488   -1.2439    0.0000 C   0  0  0  0  0  0  0  0  0  0  0  0
    2.8488   -2.0689    0.0000 C   0  0  0  0  0  0  0  0  0  0  0  0
    3.5964   -2.4749    0.0000 C   0  0  0  0  0  0  0  0  0  0  0  0
    4.2796   -2.0689    0.0000 C   0  0  0  0  0  0  0  0  0  0  0  0
    5.0272   -0.8250    0.0000 C   0  0  0  0  0  0  0  0  0  0  0  0
    5.0272   -2.4749    0.0000 C   0  0  0  0  0  0  0  0  0  0  0  0
    5.0272   -3.3322    0.0000 O   0  0  0  0  0  0  0  0  0  0  0  0
    5.7426   -2.0689    0.0000 O   0  0  0  0  0  0  0  0  0  0  0  0
    6.4452   -2.4749    0.0000 C   0  0  0  0  0  0  0  0  0  0  0  0
    5.0272   -5.5042    0.0000 Cl  0  0  0  0  0  0  0  0  0  0  0  0
    5.0272   -3.8284    0.0000 Cl  0  0  0  0  0  0  0  0  0  0  0  0
    2.1333   -2.4749    0.0000 C   0  0  0  0  0  0  0  0  0  0  0  0
    2.1333   -0.8250    0.0000 C   0  0  0  0  0  0  0  0  0  0  0  0
    1.4179   -1.2439    0.0000 O   0  0  0  0  0  0  0  0  0  0  0  0
    0.7026   -0.8250    0.0000 C   0  0  0  0  0  0  0  0  0  0  0  0
    0.7026    0.0000    0.0000 O   0  0  0  0  0  0  0  0  0  0  0  0
    0.0000   -1.2439    0.0000 N   0  0  0  0  0  0  0  0  0  0  0  0
    1.4179   -2.0689    0.0000 O   0  0  0  0  0  0  0  0  0  0  0  0
    2.1333   -3.2999    0.0000 O   0  0  0  0  0  0  0  0  0  0  0  0
    0.7026   -2.4749    0.0000 C   0  0  0  0  0  0  0  0  0  0  0  0
    0.7026   -3.2999    0.0000 C   0  0  0  0  0  0  0  0  0  0  0  0
    0.0000   -2.0689    0.0000 C   0  0  0  0  0  0  0  0  0  0  0  0
  1 19  1  0
  1  6  2  0
  1  2  1  0
  2 11  1  0
  2  3  2  0
  3  4  1  0
  4  5  2  0
  5  6  1  0
  6 18  1  0
  7 12  2  0
  7 13  1  0
  7  8  1  0
  8  9  1  0
  9 21  1  0
  9 10  2  0
 10 20  1  0
 10 11  1  0
 11 12  1  0
 12 14  1  0
 14 15  2  0
 14 16  1  0
 16 17  1  0
 20 26  1  0
 20 27  2  0
 21 22  1  0
 22 23  1  0
 23 24  2  0
 23 25  1  0
 26 28  1  0
 28 29  1  0
 28 30  1  0
M  END
>  <Formula>  (116) 
C20H22Cl2N2O6

>  <FW>  (116) 
457.3045

>  <DSSTox_CID>  (116) 
28738

>  <NR-AR>  (116) 
0

>  <NR-AR-LBD>  (116) 
1

>  <NR-ER>  (116) 
0

>  <NR-PPAR-gamma>  (116) 
1

>  <SR-ARE>  (116) 
1

>  <SR-ATAD5>  (116) 
0

>  <SR-HSE>  (116) 
1

>  <SR-p53>  (116) 
1

$$$$
NCGC00095256-01
     RDKit          2D

 29 32  0  0  1  0  0  0  0  0999 V2000
    2.1379   -4.1153    0.0000 C   0  0  0  0  0  0  0  0  0  0  0  0
    2.1379   -4.9499    0.0000 C   0  0  0  0  0  0  0  0  0  0  0  0
    1.4317   -3.6980    0.0000 C   0  0  0  0  0  0  0  0  0  0  0  0
    1.4317   -5.3480    0.0000 C   0  0  0  0  0  0  0  0  0  0  0  0
    0.7127   -4.1153    0.0000 C   0  0  0  0  0  0  0  0  0  0  0  0
    0.7127   -4.9499    0.0000 C   0  0  0  0  0  0  0  0  0  0  0  0
    3.5696   -4.1153    0.0000 C   0  0  0  0  0  0  0  0  0  0  0  0
    3.5696   -4.9499    0.0000 C   0  0  0  0  0  0  0  0  0  0  0  0
    2.8505   -3.6980    0.0000 C   0  0  0  0  0  0  0  0  0  0  0  0
    2.8505   -5.3480    0.0000 N   0  0  0  0  0  0  0  0  0  0  0  0
    2.8505   -2.8826    0.0000 C   0  0  0  0  0  0  0  0  0  0  0  0
    3.5696   -2.4782    0.0000 C   0  0  0  0  0  0  0  0  0  0  0  0
    3.5696   -1.6500    0.0000 C   0  0  0  0  0  0  0  0  0  0  0  0
    4.2758   -2.8826    0.0000 N   0  0  0  0  0  0  0  0  0  0  0  0
    4.2758   -1.2455    0.0000 C   0  0  0  0  0  0  0  0  0  0  0  0
    4.9884   -2.4782    0.0000 C   0  0  0  0  0  0  0  0  0  0  0  0
    4.9884   -1.6500    0.0000 C   0  0  0  0  0  0  0  0  0  0  0  0
    5.7075   -1.2455    0.0000 C   0  0  0  0  0  0  0  0  0  0  0  0
    6.4201   -1.6500    0.0000 C   0  0  0  0  0  0  0  0  0  0  0  0
    3.8585   -1.8683    0.0000 C   0  0  0  0  0  0  0  0  0  0  0  0
    4.7188   -2.1186    0.0000 C   0  0  0  0  0  0  0  0  0  0  0  0
    2.1379   -2.4782    0.0000 O   0  0  0  0  0  0  0  0  0  0  0  0
    0.0000   -3.6980    0.0000 O   0  0  0  0  0  0  0  0  0  0  0  0
    0.0000   -2.8762    0.0000 C   0  0  0  0  0  0  0  0  0  0  0  0
    2.1379   -1.6500    0.0000 C   0  0  0  0  0  0  0  0  0  0  0  0
    2.8505   -1.2327    0.0000 O   0  0  0  0  0  0  0  0  0  0  0  0
    1.4188   -1.2455    0.0000 O   0  0  0  0  0  0  0  0  0  0  0  0
    1.4188   -0.4173    0.0000 C   0  0  0  0  0  0  0  0  0  0  0  0
    2.1250    0.0000    0.0000 C   0  0  0  0  0  0  0  0  0  0  0  0
  1  3  2  0
  1  9  1  0
  1  2  1  0
  2  4  2  0
  2 10  1  0
  3  5  1  0
  4  6  1  0
  5  6  2  0
  5 23  1  0
  7  8  1  0
  7  9  2  0
  8 10  2  0
  9 11  1  0
 11 12  1  0
 11 22  1  1
 12 13  1  6
 12 14  1  0
 15 13  1  1
 14 16  1  1
 14 21  1  0
 15 17  1  0
 15 20  1  0
 16 17  1  0
 17 18  1  1
 18 19  2  0
 20 21  1  0
 22 25  1  0
 23 24  1  0
 25 26  2  0
 25 27  1  0
 27 28  1  0
 28 29  1  0
M  END
>  <Formula>  (117) 
C23H28N2O4

>  <FW>  (117) 
396.4794

>  <DSSTox_CID>  (117) 
25965

>  <NR-Aromatase>  (117) 
0

>  <NR-AR>  (117) 
1

>  <NR-AR-LBD>  (117) 
1

>  <NR-ER>  (117) 
1

>  <NR-ER-LBD>  (117) 
0

>  <NR-PPAR-gamma>  (117) 
0

>  <SR-ATAD5>  (117) 
0

>  <SR-MMP>  (117) 
0

>  <SR-p53>  (117) 
0

$$$$
NCGC00163165-01
     RDKit          2D

 24 27  0  0  1  0  0  0  0  0999 V2000
    2.1264   -2.5390    0.0000 C   0  0  0  0  0  0  0  0  0  0  0  0
    2.1264   -4.1890    0.0000 C   0  0  0  0  0  0  0  0  0  0  0  0
    2.8178   -2.9573    0.0000 C   0  0  0  0  0  0  0  0  0  0  0  0
    2.1264   -1.7198    0.0000 C   0  0  0  0  0  0  0  0  0  0  0  0
    1.4002   -2.9573    0.0000 C   0  0  0  0  0  0  0  0  0  0  0  0
    2.8178   -1.3247    0.0000 C   0  0  0  0  0  0  0  0  0  0  0  0
    3.5325   -2.5390    0.0000 N   0  0  0  0  0  0  0  0  0  0  0  0
    1.4002   -3.7823    0.0000 C   0  0  0  0  0  0  0  0  0  0  0  0
    2.7946   -0.4358    0.0000 C   0  0  0  0  0  0  0  0  0  0  0  0
    2.8178   -3.7823    0.0000 C   0  0  0  0  0  0  0  0  0  0  0  0
    2.1264   -5.0140    0.0000 C   0  0  0  0  0  0  0  0  0  0  0  0
    0.7088   -5.0140    0.0000 N   0  0  0  0  0  0  0  0  0  0  0  0
    3.5325   -1.7198    0.0000 C   0  0  0  0  0  0  0  0  0  0  0  0
    3.5499    0.0000    0.0000 N   0  0  0  0  0  0  0  0  0  0  0  0
    0.7088   -4.1890    0.0000 C   0  0  0  0  0  0  0  0  0  0  0  0
    2.0393    0.0000    0.0000 O   0  0  0  0  0  0  0  0  0  0  0  0
    0.7088   -2.5390    0.0000 C   0  0  0  0  0  0  0  0  0  0  0  0
    4.2587   -2.9631    0.0000 C   0  0  0  0  0  0  0  0  0  0  0  0
    4.3052   -0.4358    0.0000 C   0  0  0  0  0  0  0  0  0  0  0  0
    5.8100   -0.4358    0.0000 O   0  0  0  0  0  0  0  0  0  0  0  0
    0.0000   -2.9573    0.0000 C   0  0  0  0  0  0  0  0  0  0  0  0
    0.0000   -3.7823    0.0000 C   0  0  0  0  0  0  0  0  0  0  0  0
    5.0547    0.0000    0.0000 C   0  0  0  0  0  0  0  0  0  0  0  0
    4.3052   -1.3130    0.0000 C   0  0  0  0  0  0  0  0  0  0  0  0
  1  3  1  0
  1  4  2  0
  1  5  1  0
  2  8  1  0
  2 11  2  0
  2 10  1  0
  3  7  1  0
  3 10  1  6
  4  6  1  0
  5  8  2  0
  5 17  1  0
  6  9  1  1
  6 13  1  0
  7 18  1  0
  7 13  1  0
  8 15  1  0
  9 14  1  0
  9 16  2  0
 11 12  1  0
 12 15  1  0
 14 19  1  0
 15 22  2  0
 17 21  2  0
 19 23  1  0
 19 24  1  6
 20 23  1  0
 21 22  1  0
M  END
>  <Formula>  (118) 
C19H23N3O2

>  <FW>  (118) 
325.4048

>  <DSSTox_CID>  (118) 
26323

>  <NR-Aromatase>  (118) 
0

>  <NR-AR>  (118) 
1

>  <NR-AR-LBD>  (118) 
1

>  <NR-ER>  (118) 
0

>  <NR-ER-LBD>  (118) 
0

>  <NR-PPAR-gamma>  (118) 
0

>  <NR-AhR>  (118) 
0

>  <SR-ATAD5>  (118) 
0

>  <SR-p53>  (118) 
0

$$$$
NCGC00260032-01
     RDKit          2D

 40 43  0  0  1  0  0  0  0  0999 V2000
    2.0995   -6.7060    0.0000 O   0  0  0  0  0  0  0  0  0  0  0  0
    2.3816   -5.9304    0.0000 C   0  0  0  0  0  0  0  0  0  0  0  0
    1.8567   -5.3115    0.0000 C   0  0  0  0  0  0  0  0  0  0  0  0
    1.0420   -5.4447    0.0000 O   0  0  0  0  0  0  0  0  0  0  0  0
    2.1387   -4.5281    0.0000 C   0  0  0  0  0  0  0  0  0  0  0  0
    1.3318   -4.3871    0.0000 O   0  0  0  0  0  0  0  0  0  0  0  0
    2.1387   -3.6977    0.0000 C   0  0  0  0  0  0  0  0  0  0  0  0
    2.8594   -3.2982    0.0000 C   0  0  0  0  0  0  0  0  0  0  0  0
    2.8594   -2.4677    0.0000 O   0  0  0  0  0  0  0  0  0  0  0  0
    2.1387   -2.0525    0.0000 C   0  0  0  0  0  0  0  0  0  0  0  0
    1.4258   -2.4677    0.0000 C   0  0  0  0  0  0  0  0  0  0  0  0
    0.7129   -2.0525    0.0000 C   0  0  0  0  0  0  0  0  0  0  0  0
    0.0000   -2.4677    0.0000 N   0  0  0  0  0  0  0  0  0  0  0  0
    0.7129   -1.2300    0.0000 C   0  0  0  0  0  0  0  0  0  0  0  0
    0.0000   -0.8226    0.0000 O   0  0  0  0  0  0  0  0  0  0  0  0
    1.4258   -0.8226    0.0000 C   0  0  0  0  0  0  0  0  0  0  0  0
    1.4258    0.0000    0.0000 C   0  0  0  0  0  0  0  0  0  0  0  0
    2.1387   -1.2300    0.0000 O   0  0  0  0  0  0  0  0  0  0  0  0
    3.5724   -3.6977    0.0000 C   0  0  0  0  0  0  0  0  0  0  0  0
    4.2774   -3.2982    0.0000 C   0  0  0  0  0  0  0  0  0  0  0  0
    4.2774   -2.4677    0.0000 O   0  0  0  0  0  0  0  0  0  0  0  0
    4.9903   -3.6977    0.0000 C   0  0  0  0  0  0  0  0  0  0  0  0
    5.7032   -3.2982    0.0000 C   0  0  0  0  0  0  0  0  0  0  0  0
    5.7032   -2.4677    0.0000 O   0  0  0  0  0  0  0  0  0  0  0  0
    6.4161   -3.6977    0.0000 C   0  0  0  0  0  0  0  0  0  0  0  0
    7.1291   -3.2982    0.0000 C   0  0  0  0  0  0  0  0  0  0  0  0
    7.1291   -2.4677    0.0000 O   0  0  0  0  0  0  0  0  0  0  0  0
    7.8341   -2.0525    0.0000 C   0  0  0  0  0  0  0  0  0  0  0  0
    7.8341   -3.6977    0.0000 C   0  0  0  0  0  0  0  0  0  0  0  0
    7.8341   -4.5281    0.0000 C   0  0  0  0  0  0  0  0  0  0  0  0
    7.1291   -4.9433    0.0000 C   0  0  0  0  0  0  0  0  0  0  0  0
    6.4161   -4.5281    0.0000 C   0  0  0  0  0  0  0  0  0  0  0  0
    5.7032   -4.9433    0.0000 C   0  0  0  0  0  0  0  0  0  0  0  0
    5.7032   -5.7659    0.0000 O   0  0  0  0  0  0  0  0  0  0  0  0
    4.9903   -4.5281    0.0000 C   0  0  0  0  0  0  0  0  0  0  0  0
    4.2774   -4.9433    0.0000 C   0  0  0  0  0  0  0  0  0  0  0  0
    4.2774   -5.7659    0.0000 O   0  0  0  0  0  0  0  0  0  0  0  0
    3.5724   -4.5281    0.0000 C   0  0  0  0  0  0  0  0  0  0  0  0
    2.8594   -4.9433    0.0000 C   0  0  0  0  0  0  0  0  0  0  0  0
    5.9696   -0.3682    0.0000 Cl  0  0  0  0  0  0  0  0  0  0  0  0
  1  2  1  0
  2  3  1  0
  3  4  2  0
  5  3  1  0
  5  6  1  6
  5  7  1  0
  5 39  1  0
  7  8  1  0
  8  9  1  6
  8 19  1  0
 10  9  1  1
 10 11  1  0
 10 18  1  0
 11 12  1  0
 12 13  1  6
 12 14  1  0
 14 15  1  6
 14 16  1  0
 16 17  1  6
 16 18  1  0
 19 20  1  0
 19 38  2  0
 20 21  1  0
 20 22  2  0
 22 23  1  0
 22 35  1  0
 23 24  2  0
 23 25  1  0
 25 26  2  0
 25 32  1  0
 26 27  1  0
 26 29  1  0
 27 28  1  0
 29 30  2  0
 30 31  1  0
 31 32  2  0
 32 33  1  0
 33 34  2  0
 33 35  1  0
 35 36  2  0
 36 37  1  0
 36 38  1  0
 38 39  1  0
M  END
>  <Formula>  (119) 
C27H30ClNO11

>  <FW>  (119) 
579.9802 (543.5193+36.4609)

>  <DSSTox_CID>  (119) 
10636

>  <NR-Aromatase>  (119) 
1

>  <NR-AR>  (119) 
0

>  <NR-AR-LBD>  (119) 
1

>  <NR-ER-LBD>  (119) 
1

>  <NR-AhR>  (119) 
0

>  <SR-ATAD5>  (119) 
1

>  <SR-HSE>  (119) 
0

>  <SR-MMP>  (119) 
1

>  <SR-p53>  (119) 
1

$$$$
NCGC00164551-01
     RDKit          2D

 24 27  0  0  1  0  0  0  0  0999 V2000
    1.4291   -1.2342    0.0000 C   0  0  0  0  0  0  0  0  0  0  0  0
    2.2476   -2.0657    0.0000 N   0  0  0  0  0  0  0  0  0  0  0  0
    2.2476   -1.2342    0.0000 C   0  0  0  0  0  0  0  0  0  0  0  0
    1.4291   -2.0657    0.0000 C   0  0  0  0  0  0  0  0  0  0  0  0
    3.0271   -2.3126    0.0000 C   0  0  0  0  0  0  0  0  0  0  0  0
    3.5143   -1.6500    0.0000 C   0  0  0  0  0  0  0  0  0  0  0  0
    3.0271   -0.9809    0.0000 C   0  0  0  0  0  0  0  0  0  0  0  0
    3.2805   -3.0986    0.0000 C   0  0  0  0  0  0  0  0  0  0  0  0
    4.0795   -3.2805    0.0000 O   0  0  0  0  0  0  0  0  0  0  0  0
    2.7283   -3.7157    0.0000 O   0  0  0  0  0  0  0  0  0  0  0  0
    3.2805   -0.2014    0.0000 C   0  0  0  0  0  0  0  0  0  0  0  0
    0.0000   -1.2342    0.0000 C   0  0  0  0  0  0  0  0  0  0  0  0
    0.7081   -0.8250    0.0000 C   0  0  0  0  0  0  0  0  0  0  0  0
    0.8445   -2.6503    0.0000 O   0  0  0  0  0  0  0  0  0  0  0  0
    0.7081    0.0000    0.0000 O   0  0  0  0  0  0  0  0  0  0  0  0
    4.3393   -1.6500    0.0000 S   0  0  0  0  0  0  0  0  0  0  0  0
    4.7356   -2.3515    0.0000 C   0  0  0  0  0  0  0  0  0  0  0  0
    5.5606   -2.3515    0.0000 C   0  0  0  0  0  0  0  0  0  0  0  0
    4.4887   -3.1376    0.0000 C   0  0  0  0  0  0  0  0  0  0  0  0
    5.8204   -3.1376    0.0000 N   0  0  0  0  0  0  0  0  0  0  0  0
    5.1643   -3.6248    0.0000 N   0  0  0  0  0  0  0  0  0  0  0  0
    6.4960   -3.6248    0.0000 C   0  0  0  0  0  0  0  0  0  0  0  0
    6.2361   -4.4107    0.0000 N   0  0  0  0  0  0  0  0  0  0  0  0
    5.4111   -4.4107    0.0000 C   0  0  0  0  0  0  0  0  0  0  0  0
  1  3  1  0
  1  4  1  6
  1 13  1  0
  2  4  1  0
  2  5  1  0
  3  2  1  1
  3  7  1  0
  4 14  2  0
  5  6  2  0
  5  8  1  0
  6  7  1  0
  6 16  1  0
  7 11  1  1
  8  9  2  0
  8 10  1  0
 13 12  1  1
 13 15  1  0
 16 17  1  0
 17 18  1  0
 17 19  1  0
 18 20  1  0
 19 21  1  0
 20 22  1  0
 20 21  1  0
 21 24  2  0
 22 23  2  0
 23 24  1  0
M  CHG  2  10  -1  21   1
M  END
>  <Formula>  (120) 
C15H18N4O4S

>  <FW>  (120) 
350.3928

>  <DSSTox_CID>  (120) 
26435

>  <NR-Aromatase>  (120) 
0

>  <NR-AR>  (120) 
0

>  <NR-AR-LBD>  (120) 
1

>  <NR-ER>  (120) 
0

>  <NR-ER-LBD>  (120) 
0

>  <NR-PPAR-gamma>  (120) 
0

>  <NR-AhR>  (120) 
0

>  <SR-ATAD5>  (120) 
0

>  <SR-MMP>  (120) 
0

>  <SR-p53>  (120) 
0

$$$$
NCGC00160518-01
     RDKit          2D

 28 31  0  0  1  0  0  0  0  0999 V2000
    1.4274    0.0000    0.0000 C   0  0  0  0  0  0  0  0  0  0  0  0
    1.4274   -0.8208    0.0000 C   0  0  0  0  0  0  0  0  0  0  0  0
    2.1411   -1.2347    0.0000 C   0  0  0  0  0  0  0  0  0  0  0  0
    2.1411   -2.0625    0.0000 N   0  0  0  0  0  0  0  0  0  0  0  0
    1.4274   -2.4694    0.0000 C   0  0  0  0  0  0  0  0  0  0  0  0
    0.7137   -2.0625    0.0000 C   0  0  0  0  0  0  0  0  0  0  0  0
    0.0000   -2.4694    0.0000 C   0  0  0  0  0  0  0  0  0  0  0  0
    0.7137   -1.2347    0.0000 N   0  0  0  0  0  0  0  0  0  0  0  0
    2.8547   -2.4694    0.0000 C   0  0  0  0  0  0  0  0  0  0  0  0
    3.5684   -2.0625    0.0000 C   0  0  0  0  0  0  0  0  0  0  0  0
    3.5684   -1.2347    0.0000 F   0  0  0  0  0  0  0  0  0  0  0  0
    4.2821   -2.4694    0.0000 C   0  0  0  0  0  0  0  0  0  0  0  0
    4.2821   -3.2973    0.0000 C   0  0  0  0  0  0  0  0  0  0  0  0
    3.5684   -3.7111    0.0000 C   0  0  0  0  0  0  0  0  0  0  0  0
    2.8547   -3.2973    0.0000 C   0  0  0  0  0  0  0  0  0  0  0  0
    2.1411   -3.7111    0.0000 F   0  0  0  0  0  0  0  0  0  0  0  0
    3.5684   -4.5319    0.0000 F   0  0  0  0  0  0  0  0  0  0  0  0
    4.9958   -3.7111    0.0000 C   0  0  0  0  0  0  0  0  0  0  0  0
    4.9958   -4.5319    0.0000 O   0  0  0  0  0  0  0  0  0  0  0  0
    5.7095   -3.2973    0.0000 C   0  0  0  0  0  0  0  0  0  0  0  0
    5.7095   -2.4694    0.0000 C   0  0  0  0  0  0  0  0  0  0  0  0
    4.9958   -2.0625    0.0000 N   0  0  0  0  0  0  0  0  0  0  0  0
    4.9958   -1.2347    0.0000 C   0  0  0  0  0  0  0  0  0  0  0  0
    4.5819   -0.5210    0.0000 C   0  0  0  0  0  0  0  0  0  0  0  0
    5.4098   -0.5210    0.0000 C   0  0  0  0  0  0  0  0  0  0  0  0
    6.4231   -3.7111    0.0000 C   0  0  0  0  0  0  0  0  0  0  0  0
    7.1369   -3.2973    0.0000 O   0  0  0  0  0  0  0  0  0  0  0  0
    6.4231   -4.5319    0.0000 O   0  0  0  0  0  0  0  0  0  0  0  0
  2  1  1  1
  2  3  1  0
  2  8  1  0
  3  4  1  0
  4  5  1  0
  4  9  1  0
  5  6  1  0
  6  7  1  1
  6  8  1  0
  9 10  2  0
  9 15  1  0
 10 11  1  0
 10 12  1  0
 12 13  2  0
 12 22  1  0
 13 14  1  0
 13 18  1  0
 14 15  2  0
 14 17  1  0
 15 16  1  0
 18 19  2  0
 18 20  1  0
 20 21  2  0
 20 26  1  0
 21 22  1  0
 22 23  1  0
 23 24  1  0
 23 25  1  0
 24 25  1  0
 26 27  1  0
 26 28  2  0
M  END
>  <Formula>  (121) 
C19H20F3N3O3

>  <FW>  (121) 
395.3756

>  <DSSTox_CID>  (121) 
26201

>  <NR-Aromatase>  (121) 
0

>  <NR-AR>  (121) 
1

>  <NR-AR-LBD>  (121) 
1

>  <NR-ER>  (121) 
0

>  <NR-ER-LBD>  (121) 
0

>  <NR-PPAR-gamma>  (121) 
0

>  <NR-AhR>  (121) 
0

>  <SR-ATAD5>  (121) 
0

>  <SR-MMP>  (121) 
0

>  <SR-p53>  (121) 
0

$$$$
NCGC00254231-01
     RDKit          2D

 39 43  0  0  0  0  0  0  0  0999 V2000
    6.7179   -4.9945    0.0000 C   0  0  0  0  0  0  0  0  0  0  0  0
    7.1278   -5.7139    0.0000 N   0  0  0  0  0  0  0  0  0  0  0  0
    5.8896   -4.9945    0.0000 N   0  0  0  0  0  0  0  0  0  0  0  0
    6.7179   -6.4250    0.0000 C   0  0  0  0  0  0  0  0  0  0  0  0
    5.4713   -5.7139    0.0000 C   0  0  0  0  0  0  0  0  0  0  0  0
    5.8896   -6.4250    0.0000 C   0  0  0  0  0  0  0  0  0  0  0  0
    7.1278   -4.2918    0.0000 C   0  0  0  0  0  0  0  0  0  0  0  0
    7.9476   -4.2918    0.0000 C   0  0  0  0  0  0  0  0  0  0  0  0
    7.9476   -5.7139    0.0000 C   0  0  0  0  0  0  0  0  0  0  0  0
    8.3660   -4.9945    0.0000 C   0  0  0  0  0  0  0  0  0  0  0  0
    7.1278   -7.1445    0.0000 O   0  0  0  0  0  0  0  0  0  0  0  0
    4.6515   -5.7139    0.0000 O   0  0  0  0  0  0  0  0  0  0  0  0
    4.2415   -4.9945    0.0000 C   0  0  0  0  0  0  0  0  0  0  0  0
    3.4216   -4.9945    0.0000 N   0  0  0  0  0  0  0  0  0  0  0  0
    1.4306   -4.1746    0.0000 C   0  0  0  0  0  0  0  0  0  0  0  0
    2.1500   -4.5929    0.0000 C   0  0  0  0  0  0  0  0  0  0  0  0
    0.7195   -4.5929    0.0000 C   0  0  0  0  0  0  0  0  0  0  0  0
    2.1500   -5.4128    0.0000 C   0  0  0  0  0  0  0  0  0  0  0  0
    0.7195   -5.4128    0.0000 C   0  0  0  0  0  0  0  0  0  0  0  0
    1.4306   -5.8227    0.0000 C   0  0  0  0  0  0  0  0  0  0  0  0
    2.9281   -4.3335    0.0000 S   0  0  0  0  0  0  0  0  0  0  0  0
    2.9281   -5.6721    0.0000 C   0  0  0  0  0  0  0  0  0  0  0  0
    3.1790   -6.4585    0.0000 O   0  0  0  0  0  0  0  0  0  0  0  0
    1.4306   -6.6509    0.0000 C   0  0  0  0  0  0  0  0  0  0  0  0
    0.7195   -7.0609    0.0000 C   0  0  0  0  0  0  0  0  0  0  0  0
    2.1500   -7.0609    0.0000 C   0  0  0  0  0  0  0  0  0  0  0  0
    3.5388   -3.7898    0.0000 O   0  0  0  0  0  0  0  0  0  0  0  0
    2.7608   -3.5304    0.0000 O   0  0  0  0  0  0  0  0  0  0  0  0
    0.0000   -4.1746    0.0000 O   0  0  0  0  0  0  0  0  0  0  0  0
    0.0000   -3.3464    0.0000 C   0  0  0  0  0  0  0  0  0  0  0  0
    6.7179   -3.5806    0.0000 O   0  0  0  0  0  0  0  0  0  0  0  0
    7.1278   -2.8611    0.0000 C   0  0  0  0  0  0  0  0  0  0  0  0
    6.7179   -2.1500    0.0000 C   0  0  0  0  0  0  0  0  0  0  0  0
    7.1278   -1.4306    0.0000 N   0  0  0  0  0  0  0  0  0  0  0  0
    7.9476    0.0000    0.0000 C   0  0  0  0  0  0  0  0  0  0  0  0
    7.1278    0.0000    0.0000 C   0  0  0  0  0  0  0  0  0  0  0  0
    8.3660   -0.7195    0.0000 C   0  0  0  0  0  0  0  0  0  0  0  0
    6.7179   -0.7195    0.0000 C   0  0  0  0  0  0  0  0  0  0  0  0
    7.9476   -1.4306    0.0000 C   0  0  0  0  0  0  0  0  0  0  0  0
  1  3  2  0
  1  7  1  0
  1  2  1  0
  2  4  1  0
  2  9  1  0
  3  5  1  0
  4  6  1  0
  4 11  2  0
  5  6  2  0
  5 12  1  0
  7  8  2  0
  7 31  1  0
  8 10  1  0
  9 10  2  0
 12 13  1  0
 13 14  1  0
 14 21  1  0
 14 22  1  0
 15 16  2  0
 15 17  1  0
 16 18  1  0
 16 21  1  0
 17 19  2  0
 17 29  1  0
 18 20  2  0
 18 22  1  0
 19 20  1  0
 20 24  1  0
 21 27  2  0
 21 28  2  0
 22 23  2  0
 24 25  1  0
 24 26  1  0
 29 30  1  0
 31 32  1  0
 32 33  1  0
 33 34  1  0
 34 38  1  0
 34 39  1  0
 35 36  1  0
 35 37  1  0
 36 38  1  0
 37 39  1  0
M  END
>  <Formula>  (122) 
C27H32N4O7S

>  <FW>  (122) 
556.6306

>  <DSSTox_CID>  (122) 
27368

>  <NR-AR>  (122) 
0

>  <NR-AR-LBD>  (122) 
1

>  <NR-ER>  (122) 
0

>  <NR-ER-LBD>  (122) 
0

>  <NR-PPAR-gamma>  (122) 
0

>  <NR-AhR>  (122) 
0

>  <SR-ARE>  (122) 
1

>  <SR-ATAD5>  (122) 
0

>  <SR-HSE>  (122) 
0

>  <SR-MMP>  (122) 
0

>  <SR-p53>  (122) 
0

$$$$
NCGC00185752-01
     RDKit          2D

 39 43  0  0  1  0  0  0  0  0999 V2000
    4.2848   -1.5535    0.0000 C   0  0  0  0  0  0  0  0  0  0  0  0
    4.4654   -0.7442    0.0000 C   0  0  0  0  0  0  0  0  0  0  0  0
    4.7906   -2.1966    0.0000 C   0  0  0  0  0  0  0  0  0  0  0  0
    5.2097   -0.3902    0.0000 C   0  0  0  0  0  0  0  0  0  0  0  0
    5.6143   -2.1966    0.0000 C   0  0  0  0  0  0  0  0  0  0  0  0
    6.1346   -1.5535    0.0000 N   0  0  0  0  0  0  0  0  0  0  0  0
    5.9539   -0.7442    0.0000 C   0  0  0  0  0  0  0  0  0  0  0  0
    3.4900   -1.7920    0.0000 C   0  0  0  0  0  0  0  0  0  0  0  0
    2.8903   -1.2356    0.0000 C   0  0  0  0  0  0  0  0  0  0  0  0
    3.8657   -0.1806    0.0000 C   0  0  0  0  0  0  0  0  0  0  0  0
    3.0709   -0.4263    0.0000 C   0  0  0  0  0  0  0  0  0  0  0  0
    2.0665   -1.3006    0.0000 O   0  0  0  0  0  0  0  0  0  0  0  0
    1.7414   -0.5491    0.0000 C   0  0  0  0  0  0  0  0  0  0  0  0
    2.3628    0.0000    0.0000 O   0  0  0  0  0  0  0  0  0  0  0  0
    4.5450   -2.9842    0.0000 C   0  0  0  0  0  0  0  0  0  0  0  0
    5.2097   -3.4683    0.0000 C   0  0  0  0  0  0  0  0  0  0  0  0
    5.8745   -2.9842    0.0000 C   0  0  0  0  0  0  0  0  0  0  0  0
    6.0696   -2.8830    0.0000 C   0  0  0  0  0  0  0  0  0  0  0  0
    6.8644   -2.6663    0.0000 C   0  0  0  0  0  0  0  0  0  0  0  0
    6.9077   -1.8353    0.0000 C   0  0  0  0  0  0  0  0  0  0  0  0
    5.2097   -4.2920    0.0000 O   0  0  0  0  0  0  0  0  0  0  0  0
    5.9250   -4.7039    0.0000 C   0  0  0  0  0  0  0  0  0  0  0  0
    3.7573   -3.2298    0.0000 O   0  0  0  0  0  0  0  0  0  0  0  0
    3.5767   -4.0464    0.0000 C   0  0  0  0  0  0  0  0  0  0  0  0
    2.7963   -4.2920    0.0000 C   0  0  0  0  0  0  0  0  0  0  0  0
    4.1909   -4.5883    0.0000 O   0  0  0  0  0  0  0  0  0  0  0  0
    2.1894   -3.7501    0.0000 C   0  0  0  0  0  0  0  0  0  0  0  0
    2.6229   -5.1013    0.0000 C   0  0  0  0  0  0  0  0  0  0  0  0
    3.4105   -4.8484    0.0000 O   0  0  0  0  0  0  0  0  0  0  0  0
    1.4018   -3.9958    0.0000 C   0  0  0  0  0  0  0  0  0  0  0  0
    0.7876   -3.4466    0.0000 O   0  0  0  0  0  0  0  0  0  0  0  0
    1.2356   -4.7979    0.0000 O   0  0  0  0  0  0  0  0  0  0  0  0
    0.0000   -3.6996    0.0000 C   0  0  0  0  0  0  0  0  0  0  0  0
    1.8353   -5.3542    0.0000 C   0  0  0  0  0  0  0  0  0  0  0  0
    1.6691   -6.1635    0.0000 C   0  0  0  0  0  0  0  0  0  0  0  0
    0.8816   -6.4236    0.0000 C   0  0  0  0  0  0  0  0  0  0  0  0
    0.7153   -7.2257    0.0000 O   0  0  0  0  0  0  0  0  0  0  0  0
    0.2674   -5.8672    0.0000 C   0  0  0  0  0  0  0  0  0  0  0  0
    1.5029   -6.9655    0.0000 C   0  0  0  0  0  0  0  0  0  0  0  0
  3  1  1  1
  1  8  1  0
  1  2  2  0
  2  4  1  0
  2 10  1  0
  3 15  1  0
  3  5  1  0
  4  7  1  0
  5 17  1  0
 18  5  1  0
  5  6  1  0
  6  7  1  0
  6 20  1  0
  8  9  2  0
  9 12  1  0
  9 11  1  0
 10 11  2  0
 11 14  1  0
 12 13  1  0
 13 14  1  0
 15 16  1  0
 15 23  1  1
 16 17  2  0
 16 21  1  0
 18 19  1  0
 19 20  1  0
 21 22  1  0
 23 24  1  0
 24 25  1  0
 24 26  2  0
 25 27  1  0
 25 28  1  0
 25 29  1  6
 27 30  1  0
 28 34  1  0
 30 31  1  0
 30 32  2  0
 31 33  1  0
 34 35  1  0
 35 36  1  0
 36 37  1  0
 36 38  1  0
 36 39  1  0
M  END
>  <Formula>  (123) 
C29H39NO9

>  <FW>  (123) 
545.6213

>  <DSSTox_CID>  (123) 
25678

>  <NR-Aromatase>  (123) 
1

>  <NR-AR>  (123) 
0

>  <SR-p53>  (123) 
1

$$$$
NCGC00168772-01
     RDKit          2D

 33 40  0  0  1  0  0  0  0  0999 V2000
    4.7043   -1.7822    0.0000 C   0  0  0  0  0  0  0  0  0  0  0  0
    3.9045   -2.0593    0.0000 C   0  0  0  0  0  0  0  0  0  0  0  0
    3.1677   -1.7004    0.0000 O   0  0  0  0  0  0  0  0  0  0  0  0
    2.4120   -2.0404    0.0000 C   0  0  0  0  0  0  0  0  0  0  0  0
    2.7710   -1.3099    0.0000 C   0  0  0  0  0  0  0  0  0  0  0  0
    3.5896   -1.3225    0.0000 C   0  0  0  0  0  0  0  0  0  0  0  0
    4.3769   -1.0958    0.0000 O   0  0  0  0  0  0  0  0  0  0  0  0
    3.4700   -0.5038    0.0000 C   0  0  0  0  0  0  0  0  0  0  0  0
    4.1124    0.0000    0.0000 O   0  0  0  0  0  0  0  0  0  0  0  0
    2.1916   -2.8402    0.0000 N   0  0  0  0  0  0  0  0  0  0  0  0
    1.4233   -3.1677    0.0000 C   0  0  0  0  0  0  0  0  0  0  0  0
    1.5051   -3.9927    0.0000 C   0  0  0  0  0  0  0  0  0  0  0  0
    0.8250   -4.4587    0.0000 C   0  0  0  0  0  0  0  0  0  0  0  0
    0.0819   -4.1249    0.0000 C   0  0  0  0  0  0  0  0  0  0  0  0
    0.0000   -3.2937    0.0000 C   0  0  0  0  0  0  0  0  0  0  0  0
    0.6801   -2.8151    0.0000 C   0  0  0  0  0  0  0  0  0  0  0  0
    2.3112   -4.1754    0.0000 C   0  0  0  0  0  0  0  0  0  0  0  0
    2.7395   -3.4574    0.0000 C   0  0  0  0  0  0  0  0  0  0  0  0
    3.5645   -3.4763    0.0000 C   0  0  0  0  0  0  0  0  0  0  0  0
    3.9675   -4.1943    0.0000 C   0  0  0  0  0  0  0  0  0  0  0  0
    3.5456   -4.8996    0.0000 C   0  0  0  0  0  0  0  0  0  0  0  0
    2.7206   -4.8996    0.0000 C   0  0  0  0  0  0  0  0  0  0  0  0
    2.4498   -5.6742    0.0000 C   0  0  0  0  0  0  0  0  0  0  0  0
    1.6626   -5.9261    0.0000 O   0  0  0  0  0  0  0  0  0  0  0  0
    3.1173   -6.1654    0.0000 N   0  0  0  0  0  0  0  0  0  0  0  0
    3.7849   -5.6994    0.0000 C   0  0  0  0  0  0  0  0  0  0  0  0
    4.7799   -4.0242    0.0000 C   0  0  0  0  0  0  0  0  0  0  0  0
    4.8744   -3.2055    0.0000 C   0  0  0  0  0  0  0  0  0  0  0  0
    5.6301   -2.8780    0.0000 C   0  0  0  0  0  0  0  0  0  0  0  0
    6.2977   -3.3755    0.0000 C   0  0  0  0  0  0  0  0  0  0  0  0
    6.2095   -4.1943    0.0000 C   0  0  0  0  0  0  0  0  0  0  0  0
    5.4538   -4.5217    0.0000 C   0  0  0  0  0  0  0  0  0  0  0  0
    4.1249   -2.8654    0.0000 N   0  0  0  0  0  0  0  0  0  0  0  0
  2  1  1  6
  2  3  1  0
  2  6  1  0
  2 33  1  0
  3  4  1  0
  4  5  1  1
  4 10  1  0
  5  6  1  0
  6  7  1  1
  6  8  1  0
  8  9  1  0
 10 11  1  0
 10 18  1  0
 11 12  2  0
 11 16  1  0
 12 13  1  0
 12 17  1  0
 13 14  2  0
 14 15  1  0
 15 16  2  0
 17 18  1  0
 17 22  2  0
 18 19  2  0
 19 20  1  0
 19 33  1  0
 20 21  2  0
 20 27  1  0
 21 22  1  0
 21 26  1  0
 22 23  1  0
 23 24  2  0
 23 25  1  0
 25 26  1  0
 27 28  2  0
 27 32  1  0
 28 29  1  0
 28 33  1  0
 29 30  2  0
 30 31  1  0
 31 32  2  0
M  END
>  <Formula>  (124) 
C26H21N3O4

>  <FW>  (124) 
439.4626

>  <DSSTox_CID>  (124) 
26778

>  <NR-Aromatase>  (124) 
1

>  <NR-AR>  (124) 
0

>  <SR-MMP>  (124) 
1

>  <SR-p53>  (124) 
1

$$$$
NCGC00015889-05
     RDKit          2D

 35 38  0  0  0  0  0  0  0  0999 V2000
    4.9396   -1.4871    0.0000 C   0  0  0  0  0  0  0  0  0  0  0  0
    5.4091   -0.8088    0.0000 C   0  0  0  0  0  0  0  0  0  0  0  0
    4.1482   -1.2262    0.0000 C   0  0  0  0  0  0  0  0  0  0  0  0
    5.3396   -2.1915    0.0000 C   0  0  0  0  0  0  0  0  0  0  0  0
    6.2353   -0.8088    0.0000 C   0  0  0  0  0  0  0  0  0  0  0  0
    4.9396   -0.1565    0.0000 S   0  0  0  0  0  0  0  0  0  0  0  0
    4.1482   -0.4000    0.0000 C   0  0  0  0  0  0  0  0  0  0  0  0
    3.4351   -1.6349    0.0000 C   0  0  0  0  0  0  0  0  0  0  0  0
    4.9396   -2.9046    0.0000 C   0  0  0  0  0  0  0  0  0  0  0  0
    6.1657   -2.1915    0.0000 O   0  0  0  0  0  0  0  0  0  0  0  0
    6.6353   -1.5305    0.0000 C   0  0  0  0  0  0  0  0  0  0  0  0
    6.6353   -0.1130    0.0000 C   0  0  0  0  0  0  0  0  0  0  0  0
    3.4351    0.0000    0.0000 C   0  0  0  0  0  0  0  0  0  0  0  0
    2.7306   -1.2262    0.0000 C   0  0  0  0  0  0  0  0  0  0  0  0
    4.1134   -2.9046    0.0000 C   0  0  0  0  0  0  0  0  0  0  0  0
    5.3396   -3.6264    0.0000 C   0  0  0  0  0  0  0  0  0  0  0  0
    7.4615   -1.5305    0.0000 C   0  0  0  0  0  0  0  0  0  0  0  0
    7.4615   -0.1130    0.0000 C   0  0  0  0  0  0  0  0  0  0  0  0
    2.7306   -0.4000    0.0000 C   0  0  0  0  0  0  0  0  0  0  0  0
    3.6872   -3.6264    0.0000 C   0  0  0  0  0  0  0  0  0  0  0  0
    4.9396   -4.3308    0.0000 C   0  0  0  0  0  0  0  0  0  0  0  0
    7.8702   -0.8088    0.0000 C   0  0  0  0  0  0  0  0  0  0  0  0
    2.0089    0.0000    0.0000 O   0  0  0  0  0  0  0  0  0  0  0  0
    4.1134   -4.3308    0.0000 C   0  0  0  0  0  0  0  0  0  0  0  0
    8.6963   -0.8088    0.0000 O   0  0  0  0  0  0  0  0  0  0  0  0
    3.6872   -5.0352    0.0000 O   0  0  0  0  0  0  0  0  0  0  0  0
    2.8698   -5.0352    0.0000 C   0  0  0  0  0  0  0  0  0  0  0  0
    2.4610   -4.3308    0.0000 C   0  0  0  0  0  0  0  0  0  0  0  0
    1.6436   -4.3308    0.0000 N   0  0  0  0  0  0  0  0  0  0  0  0
    1.2349   -5.0352    0.0000 C   0  0  0  0  0  0  0  0  0  0  0  0
    1.2349   -3.6264    0.0000 C   0  0  0  0  0  0  0  0  0  0  0  0
    0.4087   -5.0352    0.0000 C   0  0  0  0  0  0  0  0  0  0  0  0
    0.4087   -3.6264    0.0000 C   0  0  0  0  0  0  0  0  0  0  0  0
    0.0000   -4.3308    0.0000 C   0  0  0  0  0  0  0  0  0  0  0  0
    1.2349   -1.6349    0.0000 Cl  0  0  0  0  0  0  0  0  0  0  0  0
  1  2  2  0
  1  3  1  0
  1  4  1  0
  2  5  1  0
  2  6  1  0
  3  7  2  0
  3  8  1  0
  4  9  1  0
  4 10  2  0
  5 11  2  0
  5 12  1  0
  6  7  1  0
  7 13  1  0
  8 14  2  0
  9 15  2  0
  9 16  1  0
 11 17  1  0
 12 18  2  0
 13 19  2  0
 14 19  1  0
 15 20  1  0
 16 21  2  0
 17 22  2  0
 18 22  1  0
 19 23  1  0
 20 24  2  0
 21 24  1  0
 22 25  1  0
 24 26  1  0
 26 27  1  0
 27 28  1  0
 28 29  1  0
 29 30  1  0
 29 31  1  0
 30 32  1  0
 31 33  1  0
 32 34  1  0
 33 34  1  0
M  END
>  <Formula>  (125) 
C28H28ClNO4S

>  <FW>  (125) 
510.0442 (473.5833+36.4609)

>  <DSSTox_CID>  (125) 
14181

>  <NR-Aromatase>  (125) 
1

>  <NR-AR>  (125) 
0

>  <NR-AhR>  (125) 
0

>  <SR-MMP>  (125) 
1

>  <SR-p53>  (125) 
1

$$$$
NCGC00021305-05
     RDKit          2D

 65 68  0  0  1  0  0  0  0  0999 V2000
    3.5645   -2.8876    0.0000 C   0  0  0  0  0  0  0  0  0  0  0  0
    3.5645   -3.7126    0.0000 O   0  0  0  0  0  0  0  0  0  0  0  0
    2.8559   -2.4751    0.0000 C   0  0  0  0  0  0  0  0  0  0  0  0
    2.8559   -4.1145    0.0000 O   0  0  0  0  0  0  0  0  0  0  0  0
    2.1472   -2.8876    0.0000 N   0  0  0  0  0  0  0  0  0  0  0  0
    2.1472   -3.7126    0.0000 C   0  0  0  0  0  0  0  0  0  0  0  0
    4.2838   -2.4751    0.0000 O   0  0  0  0  0  0  0  0  0  0  0  0
    4.9819   -2.8876    0.0000 C   0  0  0  0  0  0  0  0  0  0  0  0
    4.9819   -3.7126    0.0000 C   0  0  0  0  0  0  0  0  0  0  0  0
    5.7011   -2.4751    0.0000 C   0  0  0  0  0  0  0  0  0  0  0  0
    6.4098   -2.8876    0.0000 C   0  0  0  0  0  0  0  0  0  0  0  0
    5.7011   -4.1145    0.0000 C   0  0  0  0  0  0  0  0  0  0  0  0
    2.8559   -1.6501    0.0000 C   0  0  0  0  0  0  0  0  0  0  0  0
    2.1472   -1.2375    0.0000 C   0  0  0  0  0  0  0  0  0  0  0  0
    1.4279   -2.4751    0.0000 C   0  0  0  0  0  0  0  0  0  0  0  0
    1.4279   -1.6501    0.0000 C   0  0  0  0  0  0  0  0  0  0  0  0
    5.7011   -1.6501    0.0000 C   0  0  0  0  0  0  0  0  0  0  0  0
    6.4098   -1.2375    0.0000 C   0  0  0  0  0  0  0  0  0  0  0  0
    7.1291   -1.6501    0.0000 C   0  0  0  0  0  0  0  0  0  0  0  0
    6.4098   -0.4125    0.0000 C   0  0  0  0  0  0  0  0  0  0  0  0
    7.1291    0.0000    0.0000 C   0  0  0  0  0  0  0  0  0  0  0  0
    7.8377   -1.2375    0.0000 C   0  0  0  0  0  0  0  0  0  0  0  0
    7.8377   -0.4125    0.0000 C   0  0  0  0  0  0  0  0  0  0  0  0
    2.1472   -5.3415    0.0000 O   0  0  0  0  0  0  0  0  0  0  0  0
    1.4279   -4.1145    0.0000 C   0  0  0  0  0  0  0  0  0  0  0  0
    1.4279   -4.9395    0.0000 C   0  0  0  0  0  0  0  0  0  0  0  0
    5.7011   -4.9395    0.0000 C   0  0  0  0  0  0  0  0  0  0  0  0
    4.9819   -5.3415    0.0000 C   0  0  0  0  0  0  0  0  0  0  0  0
    2.1366   -6.1665    0.0000 C   0  0  0  0  0  0  0  0  0  0  0  0
    1.4279   -6.5896    0.0000 C   0  0  0  0  0  0  0  0  0  0  0  0
    0.7192   -5.3415    0.0000 C   0  0  0  0  0  0  0  0  0  0  0  0
    0.7192   -6.1665    0.0000 C   0  0  0  0  0  0  0  0  0  0  0  0
    2.8559   -6.5896    0.0000 C   0  0  0  0  0  0  0  0  0  0  0  0
    6.4098   -5.3415    0.0000 C   0  0  0  0  0  0  0  0  0  0  0  0
    6.4098   -6.1665    0.0000 C   0  0  0  0  0  0  0  0  0  0  0  0
    5.7011   -6.5896    0.0000 C   0  0  0  0  0  0  0  0  0  0  0  0
    2.8559   -7.4147    0.0000 C   0  0  0  0  0  0  0  0  0  0  0  0
    4.2838   -7.4147    0.0000 C   0  0  0  0  0  0  0  0  0  0  0  0
    3.5751   -7.8271    0.0000 C   0  0  0  0  0  0  0  0  0  0  0  0
    7.1291   -6.5896    0.0000 C   0  0  0  0  0  0  0  0  0  0  0  0
    7.1291   -7.4147    0.0000 C   0  0  0  0  0  0  0  0  0  0  0  0
    6.4098   -7.8166    0.0000 O   0  0  0  0  0  0  0  0  0  0  0  0
    3.5751   -8.6416    0.0000 C   0  0  0  0  0  0  0  0  0  0  0  0
    4.2838   -9.0541    0.0000 C   0  0  0  0  0  0  0  0  0  0  0  0
    6.4098   -8.6416    0.0000 C   0  0  0  0  0  0  0  0  0  0  0  0
    7.8377   -7.8166    0.0000 C   0  0  0  0  0  0  0  0  0  0  0  0
    7.8377   -8.6416    0.0000 C   0  0  0  0  0  0  0  0  0  0  0  0
    7.1291   -9.0541    0.0000 C   0  0  0  0  0  0  0  0  0  0  0  0
    5.7011   -9.8792    0.0000 C   0  0  0  0  0  0  0  0  0  0  0  0
    4.9819  -10.2916    0.0000 C   0  0  0  0  0  0  0  0  0  0  0  0
    4.2838   -9.8792    0.0000 C   0  0  0  0  0  0  0  0  0  0  0  0
    6.7377   -9.8792    0.0000 C   0  0  0  0  0  0  0  0  0  0  0  0
    8.5570   -7.4147    0.0000 O   0  0  0  0  0  0  0  0  0  0  0  0
    7.8377   -6.1665    0.0000 O   0  0  0  0  0  0  0  0  0  0  0  0
    8.5570   -9.0541    0.0000 C   0  0  0  0  0  0  0  0  0  0  0  0
    7.1820  -10.5772    0.0000 C   0  0  0  0  0  0  0  0  0  0  0  0
    2.1472   -7.8271    0.0000 O   0  0  0  0  0  0  0  0  0  0  0  0
    2.1472   -8.6522    0.0000 C   0  0  0  0  0  0  0  0  0  0  0  0
    6.4098   -3.7126    0.0000 O   0  0  0  0  0  0  0  0  0  0  0  0
    0.7192   -4.5271    0.0000 O   0  0  0  0  0  0  0  0  0  0  0  0
    0.7192   -3.7020    0.0000 O   0  0  0  0  0  0  0  0  0  0  0  0
    8.5570   -1.6501    0.0000 O   0  0  0  0  0  0  0  0  0  0  0  0
    8.5570   -0.0106    0.0000 O   0  0  0  0  0  0  0  0  0  0  0  0
    0.0000   -4.9395    0.0000 C   0  0  0  0  0  0  0  0  0  0  0  0
    8.5570   -2.4751    0.0000 C   0  0  0  0  0  0  0  0  0  0  0  0
  1  3  1  0
  1  7  1  0
  1  2  2  0
  3 13  1  1
  3  5  1  0
  4  6  2  0
  5  6  1  0
  5 15  1  0
  6 25  1  0
  7  8  1  0
  8 10  1  0
  8  9  1  6
  9 12  1  0
 10 17  1  0
 10 11  1  1
 12 27  1  0
 12 59  2  0
 13 14  1  0
 14 16  1  0
 15 16  1  0
 18 17  1  6
 18 20  1  0
 18 19  1  0
 19 22  1  0
 20 21  1  0
 21 23  1  0
 22 23  1  0
 22 62  1  6
 23 63  1  1
 24 26  1  0
 24 29  1  0
 25 26  1  0
 25 61  2  0
 26 31  1  0
 26 60  1  1
 27 34  1  0
 27 28  1  1
 29 30  1  6
 29 33  1  0
 30 32  1  0
 31 32  1  0
 31 64  1  1
 33 37  1  0
 34 35  2  0
 35 40  1  0
 35 36  1  0
 37 39  1  0
 37 57  1  1
 38 39  1  0
 39 43  2  0
 40 41  1  0
 40 54  1  1
 41 46  1  0
 41 42  1  6
 42 45  1  0
 43 44  1  0
 44 51  2  0
 46 47  1  0
 46 53  2  0
 47 48  1  0
 47 55  1  6
 48 52  1  0
 49 50  2  0
 49 52  1  0
 50 51  1  0
 52 56  1  6
 57 58  1  0
 62 65  1  0
M  END
>  <Formula>  (126) 
C51H79NO13

>  <FW>  (126) 
914.1719

>  <DSSTox_CID>  (126) 
3582

>  <NR-Aromatase>  (126) 
1

>  <NR-AR>  (126) 
0

>  <NR-AhR>  (126) 
0

>  <SR-MMP>  (126) 
1

$$$$
NCGC00025155-01
     RDKit          2D

 39 43  0  0  1  0  0  0  0  0999 V2000
    4.2848   -1.5535    0.0000 C   0  0  0  0  0  0  0  0  0  0  0  0
    4.4654   -0.7442    0.0000 C   0  0  0  0  0  0  0  0  0  0  0  0
    4.7906   -2.1966    0.0000 C   0  0  0  0  0  0  0  0  0  0  0  0
    5.2097   -0.3902    0.0000 C   0  0  0  0  0  0  0  0  0  0  0  0
    5.6143   -2.1966    0.0000 C   0  0  0  0  0  0  0  0  0  0  0  0
    6.1346   -1.5535    0.0000 N   0  0  0  0  0  0  0  0  0  0  0  0
    5.9539   -0.7442    0.0000 C   0  0  0  0  0  0  0  0  0  0  0  0
    3.4900   -1.7920    0.0000 C   0  0  0  0  0  0  0  0  0  0  0  0
    2.8903   -1.2356    0.0000 C   0  0  0  0  0  0  0  0  0  0  0  0
    3.8657   -0.1806    0.0000 C   0  0  0  0  0  0  0  0  0  0  0  0
    3.0709   -0.4263    0.0000 C   0  0  0  0  0  0  0  0  0  0  0  0
    2.0665   -1.3006    0.0000 O   0  0  0  0  0  0  0  0  0  0  0  0
    1.7414   -0.5491    0.0000 C   0  0  0  0  0  0  0  0  0  0  0  0
    2.3628    0.0000    0.0000 O   0  0  0  0  0  0  0  0  0  0  0  0
    4.5450   -2.9842    0.0000 C   0  0  0  0  0  0  0  0  0  0  0  0
    5.2097   -3.4683    0.0000 C   0  0  0  0  0  0  0  0  0  0  0  0
    5.8745   -2.9842    0.0000 C   0  0  0  0  0  0  0  0  0  0  0  0
    6.0696   -2.8830    0.0000 C   0  0  0  0  0  0  0  0  0  0  0  0
    6.8644   -2.6663    0.0000 C   0  0  0  0  0  0  0  0  0  0  0  0
    6.9077   -1.8353    0.0000 C   0  0  0  0  0  0  0  0  0  0  0  0
    5.2097   -4.2920    0.0000 O   0  0  0  0  0  0  0  0  0  0  0  0
    5.9250   -4.7039    0.0000 C   0  0  0  0  0  0  0  0  0  0  0  0
    3.7573   -3.2298    0.0000 O   0  0  0  0  0  0  0  0  0  0  0  0
    3.5767   -4.0464    0.0000 C   0  0  0  0  0  0  0  0  0  0  0  0
    2.7963   -4.2920    0.0000 C   0  0  0  0  0  0  0  0  0  0  0  0
    4.1909   -4.5883    0.0000 O   0  0  0  0  0  0  0  0  0  0  0  0
    2.1894   -3.7501    0.0000 C   0  0  0  0  0  0  0  0  0  0  0  0
    2.6229   -5.1013    0.0000 C   0  0  0  0  0  0  0  0  0  0  0  0
    3.4105   -4.8484    0.0000 O   0  0  0  0  0  0  0  0  0  0  0  0
    1.4018   -3.9958    0.0000 C   0  0  0  0  0  0  0  0  0  0  0  0
    0.7876   -3.4466    0.0000 O   0  0  0  0  0  0  0  0  0  0  0  0
    1.2356   -4.7979    0.0000 O   0  0  0  0  0  0  0  0  0  0  0  0
    0.0000   -3.6996    0.0000 C   0  0  0  0  0  0  0  0  0  0  0  0
    1.8353   -5.3542    0.0000 C   0  0  0  0  0  0  0  0  0  0  0  0
    1.6691   -6.1635    0.0000 C   0  0  0  0  0  0  0  0  0  0  0  0
    0.8816   -6.4236    0.0000 C   0  0  0  0  0  0  0  0  0  0  0  0
    0.7153   -7.2257    0.0000 O   0  0  0  0  0  0  0  0  0  0  0  0
    0.2674   -5.8672    0.0000 C   0  0  0  0  0  0  0  0  0  0  0  0
    1.5029   -6.9655    0.0000 C   0  0  0  0  0  0  0  0  0  0  0  0
  3  1  1  1
  1  8  1  0
  1  2  2  0
  2  4  1  0
  2 10  1  0
  3 15  1  0
  3  5  1  0
  4  7  1  0
  5 17  1  0
 18  5  1  0
  5  6  1  0
  6  7  1  0
  6 20  1  0
  8  9  2  0
  9 12  1  0
  9 11  1  0
 10 11  2  0
 11 14  1  0
 12 13  1  0
 13 14  1  0
 15 16  1  0
 15 23  1  1
 16 17  2  0
 16 21  1  0
 18 19  1  0
 19 20  1  0
 21 22  1  0
 23 24  1  0
 24 25  1  0
 24 26  2  0
 25 27  1  0
 25 28  1  0
 25 29  1  6
 27 30  1  0
 28 34  1  0
 30 31  1  0
 30 32  2  0
 31 33  1  0
 34 35  1  0
 35 36  1  0
 36 37  1  0
 36 38  1  0
 36 39  1  0
M  END
>  <Formula>  (127) 
C29H39NO9

>  <FW>  (127) 
545.6213

>  <DSSTox_CID>  (127) 
25678

>  <NR-Aromatase>  (127) 
1

>  <NR-AR>  (127) 
0

>  <NR-AR-LBD>  (127) 
0

>  <NR-ER-LBD>  (127) 
0

>  <SR-p53>  (127) 
1

$$$$
NCGC00163697-01
     RDKit          2D

 83 90  0  0  1  0  0  0  0  0999 V2000
    9.6802   -2.6809    0.0000 C   0  0  0  0  0  0  0  0  0  0  0  0
   10.3760   -3.0493    0.0000 C   0  0  0  0  0  0  0  0  0  0  0  0
   11.0513   -1.8624    0.0000 C   0  0  0  0  0  0  0  0  0  0  0  0
   11.0513   -2.6809    0.0000 C   0  0  0  0  0  0  0  0  0  0  0  0
    8.3090   -2.6809    0.0000 C   0  0  0  0  0  0  0  0  0  0  0  0
    9.0048   -3.0493    0.0000 C   0  0  0  0  0  0  0  0  0  0  0  0
    7.6336   -3.0493    0.0000 C   0  0  0  0  0  0  0  0  0  0  0  0
    9.6802   -1.8624    0.0000 C   0  0  0  0  0  0  0  0  0  0  0  0
    6.9173   -2.6809    0.0000 C   0  0  0  0  0  0  0  0  0  0  0  0
    6.9173   -1.8624    0.0000 C   0  0  0  0  0  0  0  0  0  0  0  0
    8.3090   -1.8624    0.0000 C   0  0  0  0  0  0  0  0  0  0  0  0
   10.3760   -1.4530    0.0000 C   0  0  0  0  0  0  0  0  0  0  0  0
    9.0048   -1.4530    0.0000 C   0  0  0  0  0  0  0  0  0  0  0  0
    7.6336   -1.4530    0.0000 C   0  0  0  0  0  0  0  0  0  0  0  0
   10.3760   -3.8884    0.0000 O   0  0  0  0  0  0  0  0  0  0  0  0
    9.0048   -3.8884    0.0000 O   0  0  0  0  0  0  0  0  0  0  0  0
    7.6336   -3.8884    0.0000 O   0  0  0  0  0  0  0  0  0  0  0  0
    6.2215   -1.4326    0.0000 O   0  0  0  0  0  0  0  0  0  0  0  0
    6.2215   -3.1107    0.0000 C   0  0  0  0  0  0  0  0  0  0  0  0
   12.4839   -1.8624    0.0000 C   0  0  0  0  0  0  0  0  0  0  0  0
   12.4839   -2.6809    0.0000 O   0  0  0  0  0  0  0  0  0  0  0  0
   11.7676   -1.4326    0.0000 C   0  0  0  0  0  0  0  0  0  0  0  0
   13.9165   -1.8624    0.0000 C   0  0  0  0  0  0  0  0  0  0  0  0
   13.9165   -2.6809    0.0000 O   0  0  0  0  0  0  0  0  0  0  0  0
   13.2002   -1.4326    0.0000 C   0  0  0  0  0  0  0  0  0  0  0  0
   14.6328   -1.4326    0.0000 C   0  0  0  0  0  0  0  0  0  0  0  0
   11.7676   -0.6140    0.0000 O   0  0  0  0  0  0  0  0  0  0  0  0
   13.2002   -0.6140    0.0000 O   0  0  0  0  0  0  0  0  0  0  0  0
   12.4839   -0.1842    0.0000 C   0  0  0  0  0  0  0  0  0  0  0  0
   17.6003   -5.1778    0.0000 O   0  0  0  0  0  0  0  0  0  0  0  0
   17.6003   -4.3591    0.0000 C   0  0  0  0  0  0  0  0  0  0  0  0
   18.3166   -5.6076    0.0000 C   0  0  0  0  0  0  0  0  0  0  0  0
   18.2961   -3.9498    0.0000 C   0  0  0  0  0  0  0  0  0  0  0  0
   19.0329   -5.1778    0.0000 C   0  0  0  0  0  0  0  0  0  0  0  0
   19.0124   -4.3591    0.0000 C   0  0  0  0  0  0  0  0  0  0  0  0
   18.3166   -6.4261    0.0000 C   0  0  0  0  0  0  0  0  0  0  0  0
   16.8635   -3.9498    0.0000 O   0  0  0  0  0  0  0  0  0  0  0  0
   19.8515   -4.3591    0.0000 O   0  0  0  0  0  0  0  0  0  0  0  0
   19.7492   -5.5871    0.0000 O   0  0  0  0  0  0  0  0  0  0  0  0
   19.4422   -3.6429    0.0000 C   0  0  0  0  0  0  0  0  0  0  0  0
   19.7492   -6.4261    0.0000 C   0  0  0  0  0  0  0  0  0  0  0  0
   19.0329   -6.8355    0.0000 O   0  0  0  0  0  0  0  0  0  0  0  0
   20.4654   -6.8355    0.0000 C   0  0  0  0  0  0  0  0  0  0  0  0
   14.7147   -5.1982    0.0000 O   0  0  0  0  0  0  0  0  0  0  0  0
   14.7147   -4.3591    0.0000 C   0  0  0  0  0  0  0  0  0  0  0  0
   15.4514   -5.6076    0.0000 C   0  0  0  0  0  0  0  0  0  0  0  0
   15.4310   -3.9498    0.0000 C   0  0  0  0  0  0  0  0  0  0  0  0
   16.1677   -5.1982    0.0000 C   0  0  0  0  0  0  0  0  0  0  0  0
   16.1677   -4.3591    0.0000 C   0  0  0  0  0  0  0  0  0  0  0  0
   15.4514   -6.4466    0.0000 C   0  0  0  0  0  0  0  0  0  0  0  0
   13.9984   -3.9498    0.0000 O   0  0  0  0  0  0  0  0  0  0  0  0
   16.8840   -5.6076    0.0000 O   0  0  0  0  0  0  0  0  0  0  0  0
   11.8495   -5.1982    0.0000 O   0  0  0  0  0  0  0  0  0  0  0  0
   11.8495   -4.3796    0.0000 C   0  0  0  0  0  0  0  0  0  0  0  0
   12.5658   -5.6280    0.0000 C   0  0  0  0  0  0  0  0  0  0  0  0
   12.5658   -3.9498    0.0000 C   0  0  0  0  0  0  0  0  0  0  0  0
   13.2821   -5.1982    0.0000 C   0  0  0  0  0  0  0  0  0  0  0  0
   13.2821   -4.3796    0.0000 C   0  0  0  0  0  0  0  0  0  0  0  0
   12.5658   -6.4671    0.0000 C   0  0  0  0  0  0  0  0  0  0  0  0
   11.1332   -3.9703    0.0000 O   0  0  0  0  0  0  0  0  0  0  0  0
   14.0189   -5.6076    0.0000 O   0  0  0  0  0  0  0  0  0  0  0  0
    4.9731   -0.7163    0.0000 O   0  0  0  0  0  0  0  0  0  0  0  0
    5.3824   -1.4326    0.0000 C   0  0  0  0  0  0  0  0  0  0  0  0
    4.1340   -0.7163    0.0000 C   0  0  0  0  0  0  0  0  0  0  0  0
    4.9731   -2.1489    0.0000 C   0  0  0  0  0  0  0  0  0  0  0  0
    3.7247   -1.4326    0.0000 C   0  0  0  0  0  0  0  0  0  0  0  0
    4.1340   -2.1489    0.0000 C   0  0  0  0  0  0  0  0  0  0  0  0
    3.7247    0.0000    0.0000 C   0  0  0  0  0  0  0  0  0  0  0  0
    3.7247   -2.8651    0.0000 O   0  0  0  0  0  0  0  0  0  0  0  0
    2.9061   -1.4326    0.0000 O   0  0  0  0  0  0  0  0  0  0  0  0
    2.4968   -2.1489    0.0000 O   0  0  0  0  0  0  0  0  0  0  0  0
    2.9061   -2.8651    0.0000 C   0  0  0  0  0  0  0  0  0  0  0  0
    1.6577   -2.1489    0.0000 C   0  0  0  0  0  0  0  0  0  0  0  0
    2.4968   -3.5815    0.0000 C   0  0  0  0  0  0  0  0  0  0  0  0
    1.2484   -2.8651    0.0000 C   0  0  0  0  0  0  0  0  0  0  0  0
    1.6577   -3.5815    0.0000 C   0  0  0  0  0  0  0  0  0  0  0  0
    1.2484   -1.4326    0.0000 C   0  0  0  0  0  0  0  0  0  0  0  0
    1.2484   -4.3182    0.0000 O   0  0  0  0  0  0  0  0  0  0  0  0
    0.4093   -2.8651    0.0000 O   0  0  0  0  0  0  0  0  0  0  0  0
    0.0000   -2.1489    0.0000 C   0  0  0  0  0  0  0  0  0  0  0  0
    2.4968   -0.7163    0.0000 C   0  0  0  0  0  0  0  0  0  0  0  0
    2.9061    0.0000    0.0000 O   0  0  0  0  0  0  0  0  0  0  0  0
    1.6577   -0.7163    0.0000 O   0  0  0  0  0  0  0  0  0  0  0  0
  1  2  1  0
  1  6  1  0
  1  8  2  0
  2  4  1  0
  2 15  2  0
  3 12  1  1
  3 22  1  0
  3  4  1  0
  4 60  1  6
  5  6  2  0
  5  7  1  0
  5 11  1  0
  6 16  1  0
  7  9  2  0
  7 17  1  0
  8 12  1  0
  8 13  1  0
  9 10  1  0
  9 19  1  0
 10 14  2  0
 10 18  1  0
 11 13  2  0
 11 14  1  0
 63 18  1  1
 20 22  1  0
 20 25  1  0
 20 21  2  0
 22 27  1  6
 23 25  1  0
 23 26  1  1
 23 24  1  0
 25 28  1  1
 27 29  1  0
 30 31  1  0
 30 32  1  0
 31 33  1  0
 31 37  1  1
 32 34  1  0
 32 36  1  6
 33 35  1  0
 34 35  1  0
 34 39  1  1
 35 38  1  0
 35 40  1  1
 49 37  1  1
 39 41  1  0
 41 42  2  0
 41 43  1  0
 44 45  1  0
 44 46  1  0
 45 47  1  0
 45 51  1  1
 46 48  1  0
 46 50  1  1
 47 49  1  0
 48 49  1  0
 48 52  1  6
 58 51  1  1
 53 54  1  0
 53 55  1  0
 54 56  1  0
 54 60  1  1
 55 57  1  0
 55 59  1  1
 56 58  1  0
 57 58  1  0
 57 61  1  6
 62 63  1  0
 62 64  1  0
 63 65  1  0
 64 66  1  0
 64 68  1  1
 65 67  1  0
 66 67  1  0
 66 70  1  1
 67 69  1  1
 72 69  1  6
 70 81  1  0
 71 72  1  0
 71 73  1  0
 72 74  1  0
 73 75  1  0
 73 77  1  1
 74 76  1  0
 75 76  1  0
 75 79  1  1
 76 78  1  1
 79 80  1  0
 81 82  1  0
 81 83  2  0
M  END
>  <Formula>  (128) 
C56H80O27

>  <FW>  (128) 
1185.2182

>  <DSSTox_CID>  (128) 
26363

>  <NR-Aromatase>  (128) 
1

>  <NR-AR>  (128) 
0

>  <SR-ATAD5>  (128) 
0

>  <SR-MMP>  (128) 
1

>  <SR-p53>  (128) 
1

$$$$
NCGC00256402-01
     RDKit          2D

 34 36  0  0  0  0  0  0  0  0999 V2000
    5.0188   -3.4548    0.0000 C   0  0  0  0  0  0  0  0  0  0  0  0
    4.2969   -3.0594    0.0000 C   0  0  0  0  0  0  0  0  0  0  0  0
    5.0188   -4.2883    0.0000 C   0  0  0  0  0  0  0  0  0  0  0  0
    3.5836   -3.4548    0.0000 C   0  0  0  0  0  0  0  0  0  0  0  0
    5.7235   -3.0594    0.0000 C   0  0  0  0  0  0  0  0  0  0  0  0
    4.2969   -1.6500    0.0000 C   0  0  0  0  0  0  0  0  0  0  0  0
    3.5836   -4.2883    0.0000 C   0  0  0  0  0  0  0  0  0  0  0  0
    5.7235   -4.7095    0.0000 C   0  0  0  0  0  0  0  0  0  0  0  0
    4.2969   -4.7095    0.0000 O   0  0  0  0  0  0  0  0  0  0  0  0
    6.4454   -4.2883    0.0000 C   0  0  0  0  0  0  0  0  0  0  0  0
    6.4454   -3.4548    0.0000 C   0  0  0  0  0  0  0  0  0  0  0  0
    5.0188   -1.2375    0.0000 C   0  0  0  0  0  0  0  0  0  0  0  0
    2.8704   -3.0594    0.0000 C   0  0  0  0  0  0  0  0  0  0  0  0
    2.8704   -4.7095    0.0000 C   0  0  0  0  0  0  0  0  0  0  0  0
    7.1673   -4.7095    0.0000 N   0  0  0  0  0  0  0  0  0  0  0  0
    5.7321   -1.6500    0.0000 C   0  0  0  0  0  0  0  0  0  0  0  0
    2.1485   -4.2883    0.0000 C   0  0  0  0  0  0  0  0  0  0  0  0
    2.1485   -3.4548    0.0000 C   0  0  0  0  0  0  0  0  0  0  0  0
    5.7321   -2.4751    0.0000 O   0  0  0  0  0  0  0  0  0  0  0  0
    1.4266   -4.7095    0.0000 N   0  0  0  0  0  0  0  0  0  0  0  0
    6.4454   -1.2375    0.0000 O   0  0  0  0  0  0  0  0  0  0  0  0
    3.5751   -1.2375    0.0000 C   0  0  0  0  0  0  0  0  0  0  0  0
    7.8720   -4.2883    0.0000 C   0  0  0  0  0  0  0  0  0  0  0  0
    7.1673   -3.0594    0.0000 C   0  0  0  0  0  0  0  0  0  0  0  0
    5.0188   -0.4125    0.0000 C   0  0  0  0  0  0  0  0  0  0  0  0
    1.4266   -3.0594    0.0000 C   0  0  0  0  0  0  0  0  0  0  0  0
    0.7219   -4.2883    0.0000 C   0  0  0  0  0  0  0  0  0  0  0  0
    6.4454   -0.4125    0.0000 C   0  0  0  0  0  0  0  0  0  0  0  0
    8.5939   -4.6751    0.0000 C   0  0  0  0  0  0  0  0  0  0  0  0
    3.5751   -0.4125    0.0000 C   0  0  0  0  0  0  0  0  0  0  0  0
    4.2969    0.0000    0.0000 C   0  0  0  0  0  0  0  0  0  0  0  0
    0.0000   -4.6751    0.0000 C   0  0  0  0  0  0  0  0  0  0  0  0
    7.1587    0.0000    0.0000 C   0  0  0  0  0  0  0  0  0  0  0  0
    4.3141   -5.3368    0.0000 Cl  0  0  0  0  0  0  0  0  0  0  0  0
  1  2  2  0
  1  3  1  0
  1  5  1  0
  2  4  1  0
  2  6  1  0
  3  8  2  0
  3  9  1  0
  4 13  2  0
  4  7  1  0
  5 11  2  0
  6 12  2  0
  6 22  1  0
  7  9  1  0
  7 14  2  0
  8 10  1  0
 10 11  1  0
 10 15  2  0
 11 24  1  0
 12 16  1  0
 12 25  1  0
 13 18  1  0
 14 17  1  0
 15 23  1  0
 16 19  2  0
 16 21  1  0
 17 20  1  0
 17 18  2  0
 18 26  1  0
 20 27  1  0
 21 28  1  0
 22 30  2  0
 23 29  1  0
 25 31  2  0
 27 32  1  0
 28 33  1  0
 30 31  1  0
M  END
>  <Formula>  (129) 
C28H31ClN2O3

>  <FW>  (129) 
479.0103 (442.5494+36.4609)

>  <DSSTox_CID>  (129) 
1243

>  <NR-Aromatase>  (129) 
1

>  <NR-AR>  (129) 
0

>  <SR-ARE>  (129) 
1

>  <SR-ATAD5>  (129) 
0

>  <SR-HSE>  (129) 
1

$$$$
NCGC00259146-01
     RDKit          2D

 34 36  0  0  0  0  0  0  0  0999 V2000
    5.0188   -3.4548    0.0000 C   0  0  0  0  0  0  0  0  0  0  0  0
    4.2969   -3.0594    0.0000 C   0  0  0  0  0  0  0  0  0  0  0  0
    5.0188   -4.2883    0.0000 C   0  0  0  0  0  0  0  0  0  0  0  0
    3.5836   -3.4548    0.0000 C   0  0  0  0  0  0  0  0  0  0  0  0
    5.7235   -3.0594    0.0000 C   0  0  0  0  0  0  0  0  0  0  0  0
    4.2969   -1.6500    0.0000 C   0  0  0  0  0  0  0  0  0  0  0  0
    3.5836   -4.2883    0.0000 C   0  0  0  0  0  0  0  0  0  0  0  0
    5.7235   -4.7095    0.0000 C   0  0  0  0  0  0  0  0  0  0  0  0
    4.2969   -4.7095    0.0000 O   0  0  0  0  0  0  0  0  0  0  0  0
    6.4454   -4.2883    0.0000 C   0  0  0  0  0  0  0  0  0  0  0  0
    6.4454   -3.4548    0.0000 C   0  0  0  0  0  0  0  0  0  0  0  0
    5.0188   -1.2375    0.0000 C   0  0  0  0  0  0  0  0  0  0  0  0
    2.8704   -3.0594    0.0000 C   0  0  0  0  0  0  0  0  0  0  0  0
    2.8704   -4.7095    0.0000 C   0  0  0  0  0  0  0  0  0  0  0  0
    7.1673   -4.7095    0.0000 N   0  0  0  0  0  0  0  0  0  0  0  0
    5.7321   -1.6500    0.0000 C   0  0  0  0  0  0  0  0  0  0  0  0
    2.1485   -4.2883    0.0000 C   0  0  0  0  0  0  0  0  0  0  0  0
    2.1485   -3.4548    0.0000 C   0  0  0  0  0  0  0  0  0  0  0  0
    5.7321   -2.4751    0.0000 O   0  0  0  0  0  0  0  0  0  0  0  0
    1.4266   -4.7095    0.0000 N   0  0  0  0  0  0  0  0  0  0  0  0
    6.4454   -1.2375    0.0000 O   0  0  0  0  0  0  0  0  0  0  0  0
    3.5751   -1.2375    0.0000 C   0  0  0  0  0  0  0  0  0  0  0  0
    7.8720   -4.2883    0.0000 C   0  0  0  0  0  0  0  0  0  0  0  0
    7.1673   -3.0594    0.0000 C   0  0  0  0  0  0  0  0  0  0  0  0
    5.0188   -0.4125    0.0000 C   0  0  0  0  0  0  0  0  0  0  0  0
    1.4266   -3.0594    0.0000 C   0  0  0  0  0  0  0  0  0  0  0  0
    0.7219   -4.2883    0.0000 C   0  0  0  0  0  0  0  0  0  0  0  0
    6.4454   -0.4125    0.0000 C   0  0  0  0  0  0  0  0  0  0  0  0
    8.5939   -4.6751    0.0000 C   0  0  0  0  0  0  0  0  0  0  0  0
    3.5751   -0.4125    0.0000 C   0  0  0  0  0  0  0  0  0  0  0  0
    4.2969    0.0000    0.0000 C   0  0  0  0  0  0  0  0  0  0  0  0
    0.0000   -4.6751    0.0000 C   0  0  0  0  0  0  0  0  0  0  0  0
    7.1587    0.0000    0.0000 C   0  0  0  0  0  0  0  0  0  0  0  0
    4.3141   -5.3368    0.0000 Cl  0  0  0  0  0  0  0  0  0  0  0  0
  1  2  2  0
  1  3  1  0
  1  5  1  0
  2  4  1  0
  2  6  1  0
  3  8  2  0
  3  9  1  0
  4 13  2  0
  4  7  1  0
  5 11  2  0
  6 12  2  0
  6 22  1  0
  7  9  1  0
  7 14  2  0
  8 10  1  0
 10 11  1  0
 10 15  2  0
 11 24  1  0
 12 16  1  0
 12 25  1  0
 13 18  1  0
 14 17  1  0
 15 23  1  0
 16 19  2  0
 16 21  1  0
 17 20  1  0
 17 18  2  0
 18 26  1  0
 20 27  1  0
 21 28  1  0
 22 30  2  0
 23 29  1  0
 25 31  2  0
 27 32  1  0
 28 33  1  0
 30 31  1  0
M  END
>  <Formula>  (130) 
C28H31ClN2O3

>  <FW>  (130) 
479.0103 (442.5494+36.4609)

>  <DSSTox_CID>  (130) 
1243

>  <NR-Aromatase>  (130) 
1

>  <NR-AR>  (130) 
0

>  <NR-ER-LBD>  (130) 
0

>  <SR-ARE>  (130) 
1

>  <SR-p53>  (130) 
1

$$$$
NCGC00254629-01
     RDKit          2D

 36 39  0  0  1  0  0  0  0  0999 V2000
    3.4956   -2.1242    0.0000 C   0  0  0  0  0  0  0  0  0  0  0  0
    3.2378   -2.9078    0.0000 C   0  0  0  0  0  0  0  0  0  0  0  0
    4.5989   -3.3512    0.0000 N   0  0  0  0  0  0  0  0  0  0  0  0
    3.7946   -3.5266    0.0000 N   0  0  0  0  0  0  0  0  0  0  0  0
    5.1557   -3.9700    0.0000 C   0  0  0  0  0  0  0  0  0  0  0  0
    6.0322   -3.5781    0.0000 N   0  0  0  0  0  0  0  0  0  0  0  0
    4.2999   -1.9592    0.0000 O   0  0  0  0  0  0  0  0  0  0  0  0
    2.4129   -2.9078    0.0000 C   0  0  0  0  0  0  0  0  0  0  0  0
    2.8356   -1.6499    0.0000 C   0  0  0  0  0  0  0  0  0  0  0  0
    2.1551   -2.1242    0.0000 C   0  0  0  0  0  0  0  0  0  0  0  0
    6.1250   -2.7635    0.0000 C   0  0  0  0  0  0  0  0  0  0  0  0
    3.6090   -1.3198    0.0000 C   0  0  0  0  0  0  0  0  0  0  0  0
    4.8464   -2.5779    0.0000 C   0  0  0  0  0  0  0  0  0  0  0  0
    9.5485   -5.2073    0.0000 C   0  0  0  0  0  0  0  0  0  0  0  0
    6.7231   -4.0731    0.0000 C   0  0  0  0  0  0  0  0  0  0  0  0
    1.8664   -3.5266    0.0000 C   0  0  0  0  0  0  0  0  0  0  0  0
    5.0630   -4.5989    0.0000 O   0  0  0  0  0  0  0  0  0  0  0  0
    1.3611   -1.9592    0.0000 C   0  0  0  0  0  0  0  0  0  0  0  0
    8.7751   -5.5579    0.0000 O   0  0  0  0  0  0  0  0  0  0  0  0
    5.4548   -2.2788    0.0000 O   0  0  0  0  0  0  0  0  0  0  0  0
    4.3721   -1.0105    0.0000 O   0  0  0  0  0  0  0  0  0  0  0  0
    7.4862   -3.7224    0.0000 C   0  0  0  0  0  0  0  0  0  0  0  0
    6.6096   -4.8774    0.0000 C   0  0  0  0  0  0  0  0  0  0  0  0
   10.3115   -4.8567    0.0000 F   0  0  0  0  0  0  0  0  0  0  0  0
    9.1979   -4.4340    0.0000 F   0  0  0  0  0  0  0  0  0  0  0  0
    9.8887   -5.9807    0.0000 F   0  0  0  0  0  0  0  0  0  0  0  0
    0.8146   -2.5779    0.0000 C   0  0  0  0  0  0  0  0  0  0  0  0
    6.8778   -2.4232    0.0000 O   0  0  0  0  0  0  0  0  0  0  0  0
    8.0636   -5.0320    0.0000 C   0  0  0  0  0  0  0  0  0  0  0  0
    1.0621   -3.3512    0.0000 C   0  0  0  0  0  0  0  0  0  0  0  0
    2.9594   -0.8146    0.0000 O   0  0  0  0  0  0  0  0  0  0  0  0
    8.1770   -4.2174    0.0000 C   0  0  0  0  0  0  0  0  0  0  0  0
    7.3212   -5.4033    0.0000 C   0  0  0  0  0  0  0  0  0  0  0  0
    0.0000   -2.3922    0.0000 Cl  0  0  0  0  0  0  0  0  0  0  0  0
    7.5377   -2.8976    0.0000 C   0  0  0  0  0  0  0  0  0  0  0  0
    3.0728    0.0000    0.0000 C   0  0  0  0  0  0  0  0  0  0  0  0
  1  2  1  0
  1  7  1  0
  1  9  1  0
  1 12  1  1
  2  4  2  0
  2  8  1  0
  3  4  1  0
  3  5  1  0
  3 13  1  0
  5  6  1  0
  5 17  2  0
  6 11  1  0
  6 15  1  0
  7 13  1  0
  8 16  2  0
  8 10  1  0
  9 10  1  0
 10 18  2  0
 11 20  2  0
 11 28  1  0
 12 21  2  0
 12 31  1  0
 14 19  1  0
 14 24  1  0
 14 25  1  0
 14 26  1  0
 15 22  2  0
 15 23  1  0
 16 30  1  0
 18 27  1  0
 19 29  1  0
 22 32  1  0
 23 33  2  0
 27 34  1  0
 27 30  2  0
 28 35  1  0
 29 33  1  0
 29 32  2  0
 31 36  1  0
M  END
>  <Formula>  (131) 
C22H17ClF3N3O7

>  <FW>  (131) 
527.8345

>  <DSSTox_CID>  (131) 
12690

>  <NR-Aromatase>  (131) 
1

>  <NR-AR>  (131) 
0

>  <NR-AhR>  (131) 
0

>  <SR-ATAD5>  (131) 
0

>  <SR-MMP>  (131) 
1

$$$$
NCGC00164545-01
     RDKit          2D

 33 34  0  0  0  0  0  0  0  0999 V2000
    2.8589   -3.5607    0.0000 C   0  0  0  0  0  0  0  0  0  0  0  0
    2.8589   -4.3824    0.0000 C   0  0  0  0  0  0  0  0  0  0  0  0
    3.5778   -4.8018    0.0000 N   0  0  0  0  0  0  0  0  0  0  0  0
    4.2797   -4.3824    0.0000 C   0  0  0  0  0  0  0  0  0  0  0  0
    4.2797   -3.5607    0.0000 C   0  0  0  0  0  0  0  0  0  0  0  0
    3.5778   -3.1413    0.0000 C   0  0  0  0  0  0  0  0  0  0  0  0
    4.9816   -3.1413    0.0000 C   0  0  0  0  0  0  0  0  0  0  0  0
    5.7005   -3.5521    0.0000 O   0  0  0  0  0  0  0  0  0  0  0  0
    4.9816   -2.3282    0.0000 O   0  0  0  0  0  0  0  0  0  0  0  0
    6.4024   -3.1413    0.0000 C   0  0  0  0  0  0  0  0  0  0  0  0
    7.1214   -3.5521    0.0000 C   0  0  0  0  0  0  0  0  0  0  0  0
    4.9816   -4.8018    0.0000 C   0  0  0  0  0  0  0  0  0  0  0  0
    2.1484   -3.1413    0.0000 C   0  0  0  0  0  0  0  0  0  0  0  0
    1.4294   -3.5521    0.0000 O   0  0  0  0  0  0  0  0  0  0  0  0
    2.1484   -2.3367    0.0000 O   0  0  0  0  0  0  0  0  0  0  0  0
    0.7275   -3.1413    0.0000 C   0  0  0  0  0  0  0  0  0  0  0  0
    0.0000   -3.5521    0.0000 C   0  0  0  0  0  0  0  0  0  0  0  0
    2.1484   -4.8018    0.0000 C   0  0  0  0  0  0  0  0  0  0  0  0
    2.8503   -0.4109    0.0000 C   0  0  0  0  0  0  0  0  0  0  0  0
    2.8503   -1.2582    0.0000 C   0  0  0  0  0  0  0  0  0  0  0  0
    3.5778   -1.6862    0.0000 C   0  0  0  0  0  0  0  0  0  0  0  0
    4.2968   -1.2582    0.0000 C   0  0  0  0  0  0  0  0  0  0  0  0
    4.2968   -0.4109    0.0000 C   0  0  0  0  0  0  0  0  0  0  0  0
    3.5778    0.0000    0.0000 C   0  0  0  0  0  0  0  0  0  0  0  0
    4.9987   -1.6776    0.0000 C   0  0  0  0  0  0  0  0  0  0  0  0
    5.7091   -1.2582    0.0000 C   0  0  0  0  0  0  0  0  0  0  0  0
    6.4110   -1.6776    0.0000 C   0  0  0  0  0  0  0  0  0  0  0  0
    7.1300   -1.2496    0.0000 O   0  0  0  0  0  0  0  0  0  0  0  0
    6.4110   -2.4908    0.0000 O   0  0  0  0  0  0  0  0  0  0  0  0
    7.8404   -1.6605    0.0000 C   0  0  0  0  0  0  0  0  0  0  0  0
    7.4467   -2.3624    0.0000 C   0  0  0  0  0  0  0  0  0  0  0  0
    8.5594   -2.0628    0.0000 C   0  0  0  0  0  0  0  0  0  0  0  0
    8.2512   -0.9501    0.0000 C   0  0  0  0  0  0  0  0  0  0  0  0
  1  6  1  0
  1 13  1  0
  1  2  2  0
  2 18  1  0
  2  3  1  0
  3  4  1  0
  4  5  2  0
  4 12  1  0
  5  6  1  0
  5  7  1  0
  6 21  1  0
  7  8  1  0
  7  9  2  0
  8 10  1  0
 10 11  1  0
 13 14  1  0
 13 15  2  0
 14 16  1  0
 16 17  1  0
 19 20  2  0
 19 24  1  0
 20 21  1  0
 21 22  2  0
 22 23  1  0
 22 25  1  0
 23 24  2  0
 25 26  2  0
 26 27  1  0
 27 28  1  0
 27 29  2  0
 28 30  1  0
 30 31  1  0
 30 32  1  0
 30 33  1  0
M  END
>  <Formula>  (132) 
C26H33NO6

>  <FW>  (132) 
455.5433

>  <DSSTox_CID>  (132) 
26429

>  <NR-Aromatase>  (132) 
1

>  <NR-AR>  (132) 
0

>  <NR-ER-LBD>  (132) 
1

>  <NR-PPAR-gamma>  (132) 
1

>  <NR-AhR>  (132) 
1

>  <SR-p53>  (132) 
1

$$$$
NCGC00181146-01
     RDKit          2D

 65 68  0  0  1  0  0  0  0  0999 V2000
    3.5645   -2.8876    0.0000 C   0  0  0  0  0  0  0  0  0  0  0  0
    3.5645   -3.7126    0.0000 O   0  0  0  0  0  0  0  0  0  0  0  0
    2.8559   -2.4751    0.0000 C   0  0  0  0  0  0  0  0  0  0  0  0
    2.8559   -4.1145    0.0000 O   0  0  0  0  0  0  0  0  0  0  0  0
    2.1472   -2.8876    0.0000 N   0  0  0  0  0  0  0  0  0  0  0  0
    2.1472   -3.7126    0.0000 C   0  0  0  0  0  0  0  0  0  0  0  0
    4.2838   -2.4751    0.0000 O   0  0  0  0  0  0  0  0  0  0  0  0
    4.9819   -2.8876    0.0000 C   0  0  0  0  0  0  0  0  0  0  0  0
    4.9819   -3.7126    0.0000 C   0  0  0  0  0  0  0  0  0  0  0  0
    5.7011   -2.4751    0.0000 C   0  0  0  0  0  0  0  0  0  0  0  0
    6.4098   -2.8876    0.0000 C   0  0  0  0  0  0  0  0  0  0  0  0
    5.7011   -4.1145    0.0000 C   0  0  0  0  0  0  0  0  0  0  0  0
    2.8559   -1.6501    0.0000 C   0  0  0  0  0  0  0  0  0  0  0  0
    2.1472   -1.2375    0.0000 C   0  0  0  0  0  0  0  0  0  0  0  0
    1.4279   -2.4751    0.0000 C   0  0  0  0  0  0  0  0  0  0  0  0
    1.4279   -1.6501    0.0000 C   0  0  0  0  0  0  0  0  0  0  0  0
    5.7011   -1.6501    0.0000 C   0  0  0  0  0  0  0  0  0  0  0  0
    6.4098   -1.2375    0.0000 C   0  0  0  0  0  0  0  0  0  0  0  0
    7.1291   -1.6501    0.0000 C   0  0  0  0  0  0  0  0  0  0  0  0
    6.4098   -0.4125    0.0000 C   0  0  0  0  0  0  0  0  0  0  0  0
    7.1291    0.0000    0.0000 C   0  0  0  0  0  0  0  0  0  0  0  0
    7.8377   -1.2375    0.0000 C   0  0  0  0  0  0  0  0  0  0  0  0
    7.8377   -0.4125    0.0000 C   0  0  0  0  0  0  0  0  0  0  0  0
    2.1472   -5.3415    0.0000 O   0  0  0  0  0  0  0  0  0  0  0  0
    1.4279   -4.1145    0.0000 C   0  0  0  0  0  0  0  0  0  0  0  0
    1.4279   -4.9395    0.0000 C   0  0  0  0  0  0  0  0  0  0  0  0
    5.7011   -4.9395    0.0000 C   0  0  0  0  0  0  0  0  0  0  0  0
    4.9819   -5.3415    0.0000 C   0  0  0  0  0  0  0  0  0  0  0  0
    2.1366   -6.1665    0.0000 C   0  0  0  0  0  0  0  0  0  0  0  0
    1.4279   -6.5896    0.0000 C   0  0  0  0  0  0  0  0  0  0  0  0
    0.7192   -5.3415    0.0000 C   0  0  0  0  0  0  0  0  0  0  0  0
    0.7192   -6.1665    0.0000 C   0  0  0  0  0  0  0  0  0  0  0  0
    2.8559   -6.5896    0.0000 C   0  0  0  0  0  0  0  0  0  0  0  0
    6.4098   -5.3415    0.0000 C   0  0  0  0  0  0  0  0  0  0  0  0
    6.4098   -6.1665    0.0000 C   0  0  0  0  0  0  0  0  0  0  0  0
    5.7011   -6.5896    0.0000 C   0  0  0  0  0  0  0  0  0  0  0  0
    2.8559   -7.4147    0.0000 C   0  0  0  0  0  0  0  0  0  0  0  0
    4.2838   -7.4147    0.0000 C   0  0  0  0  0  0  0  0  0  0  0  0
    3.5751   -7.8271    0.0000 C   0  0  0  0  0  0  0  0  0  0  0  0
    7.1291   -6.5896    0.0000 C   0  0  0  0  0  0  0  0  0  0  0  0
    7.1291   -7.4147    0.0000 C   0  0  0  0  0  0  0  0  0  0  0  0
    6.4098   -7.8166    0.0000 O   0  0  0  0  0  0  0  0  0  0  0  0
    3.5751   -8.6416    0.0000 C   0  0  0  0  0  0  0  0  0  0  0  0
    4.2838   -9.0541    0.0000 C   0  0  0  0  0  0  0  0  0  0  0  0
    6.4098   -8.6416    0.0000 C   0  0  0  0  0  0  0  0  0  0  0  0
    7.8377   -7.8166    0.0000 C   0  0  0  0  0  0  0  0  0  0  0  0
    7.8377   -8.6416    0.0000 C   0  0  0  0  0  0  0  0  0  0  0  0
    7.1291   -9.0541    0.0000 C   0  0  0  0  0  0  0  0  0  0  0  0
    5.7011   -9.8792    0.0000 C   0  0  0  0  0  0  0  0  0  0  0  0
    4.9819  -10.2916    0.0000 C   0  0  0  0  0  0  0  0  0  0  0  0
    4.2838   -9.8792    0.0000 C   0  0  0  0  0  0  0  0  0  0  0  0
    6.7377   -9.8792    0.0000 C   0  0  0  0  0  0  0  0  0  0  0  0
    8.5570   -7.4147    0.0000 O   0  0  0  0  0  0  0  0  0  0  0  0
    7.8377   -6.1665    0.0000 O   0  0  0  0  0  0  0  0  0  0  0  0
    8.5570   -9.0541    0.0000 C   0  0  0  0  0  0  0  0  0  0  0  0
    7.1820  -10.5772    0.0000 C   0  0  0  0  0  0  0  0  0  0  0  0
    2.1472   -7.8271    0.0000 O   0  0  0  0  0  0  0  0  0  0  0  0
    2.1472   -8.6522    0.0000 C   0  0  0  0  0  0  0  0  0  0  0  0
    6.4098   -3.7126    0.0000 O   0  0  0  0  0  0  0  0  0  0  0  0
    0.7192   -4.5271    0.0000 O   0  0  0  0  0  0  0  0  0  0  0  0
    0.7192   -3.7020    0.0000 O   0  0  0  0  0  0  0  0  0  0  0  0
    8.5570   -1.6501    0.0000 O   0  0  0  0  0  0  0  0  0  0  0  0
    8.5570   -0.0106    0.0000 O   0  0  0  0  0  0  0  0  0  0  0  0
    0.0000   -4.9395    0.0000 C   0  0  0  0  0  0  0  0  0  0  0  0
    8.5570   -2.4751    0.0000 C   0  0  0  0  0  0  0  0  0  0  0  0
  1  3  1  0
  1  7  1  0
  1  2  2  0
  3 13  1  1
  3  5  1  0
  4  6  2  0
  5  6  1  0
  5 15  1  0
  6 25  1  0
  7  8  1  0
  8 10  1  0
  8  9  1  6
  9 12  1  0
 10 17  1  0
 10 11  1  1
 12 27  1  0
 12 59  2  0
 13 14  1  0
 14 16  1  0
 15 16  1  0
 18 17  1  6
 18 20  1  0
 18 19  1  0
 19 22  1  0
 20 21  1  0
 21 23  1  0
 22 23  1  0
 22 62  1  6
 23 63  1  1
 24 26  1  0
 24 29  1  0
 25 26  1  0
 25 61  2  0
 26 31  1  0
 26 60  1  1
 27 34  1  0
 27 28  1  1
 29 30  1  6
 29 33  1  0
 30 32  1  0
 31 32  1  0
 31 64  1  1
 33 37  1  0
 34 35  2  0
 35 40  1  0
 35 36  1  0
 37 39  1  0
 37 57  1  1
 38 39  1  0
 39 43  2  0
 40 41  1  0
 40 54  1  1
 41 46  1  0
 41 42  1  6
 42 45  1  0
 43 44  1  0
 44 51  2  0
 46 47  1  0
 46 53  2  0
 47 48  1  0
 47 55  1  6
 48 52  1  0
 49 50  2  0
 49 52  1  0
 50 51  1  0
 52 56  1  6
 57 58  1  0
 62 65  1  0
M  END
>  <Formula>  (133) 
C51H79NO13

>  <FW>  (133) 
914.1719

>  <DSSTox_CID>  (133) 
3582

>  <NR-Aromatase>  (133) 
1

>  <NR-AR>  (133) 
0

>  <NR-ER-LBD>  (133) 
0

>  <NR-AhR>  (133) 
0

>  <SR-MMP>  (133) 
1

$$$$
NCGC00164625-02
     RDKit          2D

 34 34  0  0  1  0  0  0  0  0999 V2000
    0.0000   -2.6276    0.0000 Na  0  0  0  0  0 15  0  0  0  0  0  0
    8.2707   -5.7691    0.0000 C   0  0  0  0  0  0  0  0  0  0  0  0
    8.2707   -4.9449    0.0000 C   0  0  0  0  0  0  0  0  0  0  0  0
    8.9785   -4.5378    0.0000 C   0  0  0  0  0  0  0  0  0  0  0  0
    7.5532   -4.5378    0.0000 C   0  0  0  0  0  0  0  0  0  0  0  0
    6.8454   -4.9449    0.0000 N   0  0  0  0  0  0  0  0  0  0  0  0
    6.1279   -4.5378    0.0000 C   0  0  0  0  0  0  0  0  0  0  0  0
    6.1279   -3.7039    0.0000 C   0  0  0  0  0  0  0  0  0  0  0  0
    5.4104   -3.2966    0.0000 C   0  0  0  0  0  0  0  0  0  0  0  0
    4.7026   -3.7039    0.0000 C   0  0  0  0  0  0  0  0  0  0  0  0
    3.9850   -3.2966    0.0000 C   0  0  0  0  0  0  0  0  0  0  0  0
    3.9850   -2.4822    0.0000 O   0  0  0  0  0  0  0  0  0  0  0  0
    3.2676   -3.7039    0.0000 C   0  0  0  0  0  0  0  0  0  0  0  0
    2.5597   -3.2966    0.0000 C   0  0  0  0  0  0  0  0  0  0  0  0
    2.5597   -2.4822    0.0000 O   0  0  0  0  0  0  0  0  0  0  0  0
    1.8423   -3.7039    0.0000 C   0  0  0  0  0  0  0  0  0  0  0  0
    1.1344   -3.2966    0.0000 C   0  0  0  0  0  0  0  0  0  0  0  0
    0.4169   -3.7039    0.0000 O   0  0  0  0  0  0  0  0  0  0  0  0
    1.1344   -2.4822    0.0000 O   0  0  0  0  0  0  0  0  0  0  0  0
    6.8454   -3.2966    0.0000 C   0  0  0  0  0  0  0  0  0  0  0  0
    7.5532   -3.7039    0.0000 C   0  0  0  0  0  0  0  0  0  0  0  0
    8.2707   -3.2966    0.0000 C   0  0  0  0  0  0  0  0  0  0  0  0
    8.9785   -3.7039    0.0000 O   0  0  0  0  0  0  0  0  0  0  0  0
    9.6960   -3.2966    0.0000 C   0  0  0  0  0  0  0  0  0  0  0  0
    6.8454   -2.4822    0.0000 C   0  0  0  0  0  0  0  0  0  0  0  0
    6.1279   -2.0653    0.0000 C   0  0  0  0  0  0  0  0  0  0  0  0
    6.1279   -1.2314    0.0000 C   0  0  0  0  0  0  0  0  0  0  0  0
    6.8454   -0.8242    0.0000 C   0  0  0  0  0  0  0  0  0  0  0  0
    6.8454    0.0000    0.0000 F   0  0  0  0  0  0  0  0  0  0  0  0
    7.5532   -1.2314    0.0000 C   0  0  0  0  0  0  0  0  0  0  0  0
    7.5532   -2.0653    0.0000 C   0  0  0  0  0  0  0  0  0  0  0  0
    5.4104   -4.9449    0.0000 C   0  0  0  0  0  0  0  0  0  0  0  0
    5.4104   -5.7691    0.0000 C   0  0  0  0  0  0  0  0  0  0  0  0
    4.7026   -4.5378    0.0000 C   0  0  0  0  0  0  0  0  0  0  0  0
  2  3  1  0
  3  4  1  0
  3  5  1  0
  5  6  2  0
  5 21  1  0
  6  7  1  0
  7  8  2  0
  7 32  1  0
  8  9  1  0
  8 20  1  0
  9 10  2  0
 10 11  1  0
 11 12  1  6
 11 13  1  0
 13 14  1  0
 14 15  1  6
 14 16  1  0
 16 17  1  0
 17 18  1  0
 17 19  2  0
 20 21  2  0
 20 25  1  0
 21 22  1  0
 22 23  1  0
 23 24  1  0
 25 26  2  0
 25 31  1  0
 26 27  1  0
 27 28  2  0
 28 29  1  0
 28 30  1  0
 30 31  2  0
 32 33  1  0
 32 34  1  0
M  CHG  2   1   1  18  -1
M  END
>  <Formula>  (134) 
C26H33FNNaO5

>  <FW>  (134) 
481.5321 (22.9892+458.5429)

>  <DSSTox_CID>  (134) 
26488

>  <NR-Aromatase>  (134) 
1

>  <NR-AR>  (134) 
1

>  <NR-ER>  (134) 
1

>  <NR-AhR>  (134) 
0

>  <SR-ATAD5>  (134) 
0

>  <SR-p53>  (134) 
0

$$$$
NCGC00167512-01
     RDKit          2D

 68 71  0  0  1  0  0  0  0  0999 V2000
    3.5678   -2.8928    0.0000 C   0  0  0  0  0  0  0  0  0  0  0  0
    3.5678   -3.7178    0.0000 O   0  0  0  0  0  0  0  0  0  0  0  0
    2.8606   -2.4749    0.0000 C   0  0  0  0  0  0  0  0  0  0  0  0
    2.8606   -4.1249    0.0000 O   0  0  0  0  0  0  0  0  0  0  0  0
    2.1536   -2.8928    0.0000 N   0  0  0  0  0  0  0  0  0  0  0  0
    2.1536   -3.7178    0.0000 C   0  0  0  0  0  0  0  0  0  0  0  0
    4.2963   -2.4749    0.0000 O   0  0  0  0  0  0  0  0  0  0  0  0
    4.9928   -2.8928    0.0000 C   0  0  0  0  0  0  0  0  0  0  0  0
    4.9928   -3.7178    0.0000 C   0  0  0  0  0  0  0  0  0  0  0  0
    5.7106   -2.4749    0.0000 C   0  0  0  0  0  0  0  0  0  0  0  0
    6.4177   -2.8928    0.0000 C   0  0  0  0  0  0  0  0  0  0  0  0
    5.7106   -4.1249    0.0000 C   0  0  0  0  0  0  0  0  0  0  0  0
    2.8606   -1.6499    0.0000 C   0  0  0  0  0  0  0  0  0  0  0  0
    2.1536   -1.2429    0.0000 C   0  0  0  0  0  0  0  0  0  0  0  0
    1.4357   -2.4749    0.0000 C   0  0  0  0  0  0  0  0  0  0  0  0
    1.4357   -1.6499    0.0000 C   0  0  0  0  0  0  0  0  0  0  0  0
    5.7106   -1.6499    0.0000 C   0  0  0  0  0  0  0  0  0  0  0  0
    6.4177   -1.2429    0.0000 C   0  0  0  0  0  0  0  0  0  0  0  0
    7.1463   -1.6499    0.0000 C   0  0  0  0  0  0  0  0  0  0  0  0
    6.4177   -0.4179    0.0000 C   0  0  0  0  0  0  0  0  0  0  0  0
    7.1463    0.0000    0.0000 C   0  0  0  0  0  0  0  0  0  0  0  0
    7.8534   -1.2429    0.0000 C   0  0  0  0  0  0  0  0  0  0  0  0
    7.8534   -0.4179    0.0000 C   0  0  0  0  0  0  0  0  0  0  0  0
    2.1536   -5.3463    0.0000 O   0  0  0  0  0  0  0  0  0  0  0  0
    1.4357   -4.1249    0.0000 C   0  0  0  0  0  0  0  0  0  0  0  0
    1.4357   -4.9499    0.0000 C   0  0  0  0  0  0  0  0  0  0  0  0
    5.7106   -4.9499    0.0000 C   0  0  0  0  0  0  0  0  0  0  0  0
    4.9928   -5.3463    0.0000 C   0  0  0  0  0  0  0  0  0  0  0  0
    2.1428   -6.1820    0.0000 C   0  0  0  0  0  0  0  0  0  0  0  0
    1.4357   -6.5999    0.0000 C   0  0  0  0  0  0  0  0  0  0  0  0
    0.7179   -5.3463    0.0000 C   0  0  0  0  0  0  0  0  0  0  0  0
    0.7179   -6.1820    0.0000 C   0  0  0  0  0  0  0  0  0  0  0  0
    2.8606   -6.5999    0.0000 C   0  0  0  0  0  0  0  0  0  0  0  0
    6.4177   -5.3463    0.0000 C   0  0  0  0  0  0  0  0  0  0  0  0
    6.4177   -6.1820    0.0000 C   0  0  0  0  0  0  0  0  0  0  0  0
    5.7106   -6.5999    0.0000 C   0  0  0  0  0  0  0  0  0  0  0  0
    2.8606   -7.4249    0.0000 C   0  0  0  0  0  0  0  0  0  0  0  0
    4.2963   -7.4249    0.0000 C   0  0  0  0  0  0  0  0  0  0  0  0
    3.5785   -7.8427    0.0000 C   0  0  0  0  0  0  0  0  0  0  0  0
    7.1463   -6.5999    0.0000 C   0  0  0  0  0  0  0  0  0  0  0  0
    7.1463   -7.4249    0.0000 C   0  0  0  0  0  0  0  0  0  0  0  0
    6.4177   -7.8320    0.0000 O   0  0  0  0  0  0  0  0  0  0  0  0
    3.5785   -8.6570    0.0000 C   0  0  0  0  0  0  0  0  0  0  0  0
    4.2963   -9.0748    0.0000 C   0  0  0  0  0  0  0  0  0  0  0  0
    6.4177   -8.6570    0.0000 C   0  0  0  0  0  0  0  0  0  0  0  0
    7.8534   -7.8320    0.0000 C   0  0  0  0  0  0  0  0  0  0  0  0
    7.8534   -8.6570    0.0000 C   0  0  0  0  0  0  0  0  0  0  0  0
    7.1463   -9.0748    0.0000 C   0  0  0  0  0  0  0  0  0  0  0  0
    5.7106   -9.8998    0.0000 C   0  0  0  0  0  0  0  0  0  0  0  0
    4.9928  -10.3070    0.0000 C   0  0  0  0  0  0  0  0  0  0  0  0
    4.2963   -9.8998    0.0000 C   0  0  0  0  0  0  0  0  0  0  0  0
    6.7499   -9.8998    0.0000 C   0  0  0  0  0  0  0  0  0  0  0  0
    8.5713   -7.4249    0.0000 O   0  0  0  0  0  0  0  0  0  0  0  0
    7.8534   -6.1820    0.0000 O   0  0  0  0  0  0  0  0  0  0  0  0
    8.5713   -9.0748    0.0000 C   0  0  0  0  0  0  0  0  0  0  0  0
    7.1998  -10.5962    0.0000 C   0  0  0  0  0  0  0  0  0  0  0  0
    2.1536   -7.8427    0.0000 O   0  0  0  0  0  0  0  0  0  0  0  0
    2.1536   -8.6677    0.0000 C   0  0  0  0  0  0  0  0  0  0  0  0
    6.4177   -3.7178    0.0000 O   0  0  0  0  0  0  0  0  0  0  0  0
    0.7179   -4.5321    0.0000 O   0  0  0  0  0  0  0  0  0  0  0  0
    0.7179   -3.7071    0.0000 O   0  0  0  0  0  0  0  0  0  0  0  0
    8.5713   -1.6499    0.0000 O   0  0  0  0  0  0  0  0  0  0  0  0
    8.5713   -0.0107    0.0000 O   0  0  0  0  0  0  0  0  0  0  0  0
    0.0000   -4.9499    0.0000 C   0  0  0  0  0  0  0  0  0  0  0  0
    8.5713   -2.4749    0.0000 C   0  0  0  0  0  0  0  0  0  0  0  0
    9.2784   -0.4286    0.0000 C   0  0  0  0  0  0  0  0  0  0  0  0
   10.0069   -0.0322    0.0000 C   0  0  0  0  0  0  0  0  0  0  0  0
   10.7141   -0.4500    0.0000 O   0  0  0  0  0  0  0  0  0  0  0  0
  1  3  1  0
  1  7  1  0
  1  2  2  0
  3 13  1  1
  3  5  1  0
  4  6  2  0
  5  6  1  0
  5 15  1  0
  6 25  1  0
  7  8  1  0
  8 10  1  0
  8  9  1  6
  9 12  1  0
 10 17  1  0
 10 11  1  1
 12 27  1  0
 12 59  2  0
 13 14  1  0
 14 16  1  0
 15 16  1  0
 18 17  1  6
 18 20  1  0
 18 19  1  0
 19 22  1  0
 20 21  1  0
 21 23  1  0
 22 23  1  0
 22 62  1  6
 23 63  1  1
 24 26  1  0
 24 29  1  0
 25 26  1  0
 25 61  2  0
 26 31  1  0
 26 60  1  1
 27 34  1  0
 27 28  1  1
 29 30  1  6
 29 33  1  0
 30 32  1  0
 31 32  1  0
 31 64  1  1
 33 37  1  0
 34 35  2  0
 35 40  1  0
 35 36  1  0
 37 39  1  0
 37 57  1  1
 38 39  1  0
 39 43  2  0
 40 41  1  0
 40 54  1  1
 41 46  1  0
 41 42  1  6
 42 45  1  0
 43 44  1  0
 44 51  2  0
 46 47  1  0
 46 53  2  0
 47 48  1  0
 47 55  1  6
 48 52  1  0
 49 50  2  0
 49 52  1  0
 50 51  1  0
 52 56  1  6
 57 58  1  0
 62 65  1  0
 63 66  1  0
 66 67  1  0
 67 68  1  0
M  END
>  <Formula>  (135) 
C53H83NO14

>  <FW>  (135) 
958.2244

>  <DSSTox_CID>  (135) 
20599

>  <NR-Aromatase>  (135) 
1

>  <NR-AR>  (135) 
0

>  <NR-ER>  (135) 
0

>  <NR-AhR>  (135) 
0

>  <SR-MMP>  (135) 
1

$$$$
NCGC00181319-01
     RDKit          2D

 76 83  0  0  1  0  0  0  0  0999 V2000
    7.8792   -2.4741    0.0000 C   0  0  0  0  0  0  0  0  0  0  0  0
    8.5884   -2.8838    0.0000 C   0  0  0  0  0  0  0  0  0  0  0  0
    9.2975   -1.6389    0.0000 C   0  0  0  0  0  0  0  0  0  0  0  0
    9.2975   -2.4741    0.0000 C   0  0  0  0  0  0  0  0  0  0  0  0
    6.4452   -2.4741    0.0000 C   0  0  0  0  0  0  0  0  0  0  0  0
    7.1543   -2.8838    0.0000 C   0  0  0  0  0  0  0  0  0  0  0  0
    5.7203   -2.8838    0.0000 C   0  0  0  0  0  0  0  0  0  0  0  0
   10.7315   -1.6389    0.0000 C   0  0  0  0  0  0  0  0  0  0  0  0
    7.8792   -1.6389    0.0000 C   0  0  0  0  0  0  0  0  0  0  0  0
    5.0112   -2.4741    0.0000 C   0  0  0  0  0  0  0  0  0  0  0  0
    5.0112   -1.6389    0.0000 C   0  0  0  0  0  0  0  0  0  0  0  0
   10.0066   -1.2449    0.0000 C   0  0  0  0  0  0  0  0  0  0  0  0
    6.4452   -1.6389    0.0000 C   0  0  0  0  0  0  0  0  0  0  0  0
    8.5884   -1.2449    0.0000 C   0  0  0  0  0  0  0  0  0  0  0  0
   11.4406   -1.2449    0.0000 C   0  0  0  0  0  0  0  0  0  0  0  0
   10.0066   -2.8838    0.0000 O   0  0  0  0  0  0  0  0  0  0  0  0
    7.1543   -1.2449    0.0000 C   0  0  0  0  0  0  0  0  0  0  0  0
    5.7203   -1.2449    0.0000 C   0  0  0  0  0  0  0  0  0  0  0  0
    4.2863   -1.2449    0.0000 O   0  0  0  0  0  0  0  0  0  0  0  0
    8.5884   -3.7190    0.0000 O   0  0  0  0  0  0  0  0  0  0  0  0
   10.7315   -2.4741    0.0000 O   0  0  0  0  0  0  0  0  0  0  0  0
    7.1543   -3.7190    0.0000 O   0  0  0  0  0  0  0  0  0  0  0  0
    5.7203   -3.7190    0.0000 O   0  0  0  0  0  0  0  0  0  0  0  0
   12.1498   -1.6389    0.0000 C   0  0  0  0  0  0  0  0  0  0  0  0
   11.4406   -0.4097    0.0000 O   0  0  0  0  0  0  0  0  0  0  0  0
   10.0066   -0.4097    0.0000 O   0  0  0  0  0  0  0  0  0  0  0  0
    4.2863   -2.8838    0.0000 C   0  0  0  0  0  0  0  0  0  0  0  0
   12.1498   -2.4741    0.0000 O   0  0  0  0  0  0  0  0  0  0  0  0
   12.8747   -1.2449    0.0000 C   0  0  0  0  0  0  0  0  0  0  0  0
   10.7315    0.0000    0.0000 C   0  0  0  0  0  0  0  0  0  0  0  0
    3.5772   -1.6389    0.0000 C   0  0  0  0  0  0  0  0  0  0  0  0
    3.5772   -2.4741    0.0000 C   0  0  0  0  0  0  0  0  0  0  0  0
    2.8681   -1.2449    0.0000 O   0  0  0  0  0  0  0  0  0  0  0  0
    2.8681   -2.8838    0.0000 C   0  0  0  0  0  0  0  0  0  0  0  0
    2.1589   -1.6389    0.0000 C   0  0  0  0  0  0  0  0  0  0  0  0
    2.1589   -2.4741    0.0000 C   0  0  0  0  0  0  0  0  0  0  0  0
    2.8681   -3.7190    0.0000 O   0  0  0  0  0  0  0  0  0  0  0  0
    1.4340   -2.8838    0.0000 O   0  0  0  0  0  0  0  0  0  0  0  0
    1.4340   -1.2449    0.0000 C   0  0  0  0  0  0  0  0  0  0  0  0
    2.1589   -4.1287    0.0000 C   0  0  0  0  0  0  0  0  0  0  0  0
    2.1589   -4.9481    0.0000 C   0  0  0  0  0  0  0  0  0  0  0  0
    1.4340   -3.7190    0.0000 O   0  0  0  0  0  0  0  0  0  0  0  0
    1.4340   -5.3736    0.0000 C   0  0  0  0  0  0  0  0  0  0  0  0
    0.7249   -4.1287    0.0000 C   0  0  0  0  0  0  0  0  0  0  0  0
    0.7249   -4.9481    0.0000 C   0  0  0  0  0  0  0  0  0  0  0  0
    1.4340   -6.1931    0.0000 O   0  0  0  0  0  0  0  0  0  0  0  0
    0.0000   -5.3736    0.0000 O   0  0  0  0  0  0  0  0  0  0  0  0
    0.0000   -3.7190    0.0000 C   0  0  0  0  0  0  0  0  0  0  0  0
   10.0066   -3.7190    0.0000 C   0  0  0  0  0  0  0  0  0  0  0  0
   10.7315   -4.1287    0.0000 C   0  0  0  0  0  0  0  0  0  0  0  0
    9.2975   -4.1287    0.0000 O   0  0  0  0  0  0  0  0  0  0  0  0
   10.7315   -4.9481    0.0000 C   0  0  0  0  0  0  0  0  0  0  0  0
    9.2975   -4.9481    0.0000 C   0  0  0  0  0  0  0  0  0  0  0  0
   10.0066   -5.3736    0.0000 C   0  0  0  0  0  0  0  0  0  0  0  0
   11.4406   -5.3736    0.0000 O   0  0  0  0  0  0  0  0  0  0  0  0
   10.0066   -6.1931    0.0000 O   0  0  0  0  0  0  0  0  0  0  0  0
    8.5884   -5.3736    0.0000 C   0  0  0  0  0  0  0  0  0  0  0  0
   12.1813   -4.9797    0.0000 C   0  0  0  0  0  0  0  0  0  0  0  0
   12.1813   -4.1603    0.0000 C   0  0  0  0  0  0  0  0  0  0  0  0
   12.8904   -5.3894    0.0000 O   0  0  0  0  0  0  0  0  0  0  0  0
   12.8904   -3.7348    0.0000 C   0  0  0  0  0  0  0  0  0  0  0  0
   13.6153   -4.9797    0.0000 C   0  0  0  0  0  0  0  0  0  0  0  0
   13.6153   -4.1603    0.0000 C   0  0  0  0  0  0  0  0  0  0  0  0
   12.8904   -2.9153    0.0000 O   0  0  0  0  0  0  0  0  0  0  0  0
   14.3245   -3.7348    0.0000 O   0  0  0  0  0  0  0  0  0  0  0  0
   14.3245   -5.3894    0.0000 C   0  0  0  0  0  0  0  0  0  0  0  0
   13.6153   -2.5056    0.0000 C   0  0  0  0  0  0  0  0  0  0  0  0
   13.6153   -1.6861    0.0000 C   0  0  0  0  0  0  0  0  0  0  0  0
   14.3245   -2.9153    0.0000 O   0  0  0  0  0  0  0  0  0  0  0  0
   14.3245   -1.2607    0.0000 C   0  0  0  0  0  0  0  0  0  0  0  0
   15.0493   -2.5056    0.0000 C   0  0  0  0  0  0  0  0  0  0  0  0
   15.0493   -1.6861    0.0000 C   0  0  0  0  0  0  0  0  0  0  0  0
   13.9148   -0.5516    0.0000 O   0  0  0  0  0  0  0  0  0  0  0  0
   14.7499   -0.5516    0.0000 C   0  0  0  0  0  0  0  0  0  0  0  0
   15.7585   -1.2607    0.0000 O   0  0  0  0  0  0  0  0  0  0  0  0
   15.7585   -2.9153    0.0000 C   0  0  0  0  0  0  0  0  0  0  0  0
  1  2  1  0
  1  6  1  0
  1  9  2  0
  2  4  1  0
  2 20  2  0
  3 14  1  0
  3 12  1  0
  3  4  1  0
  4 16  1  6
  5  6  2  0
  5  7  1  0
  5 13  1  0
  6 22  1  0
  7 10  2  0
  7 23  1  0
  8 12  1  0
  8 15  1  0
  8 21  2  0
  9 14  1  0
  9 17  1  0
 10 27  1  0
 10 11  1  0
 11 18  2  0
 11 19  1  0
 12 26  1  6
 13 17  2  0
 13 18  1  0
 15 24  1  0
 15 25  1  1
 49 16  1  1
 31 19  1  1
 24 28  1  0
 24 29  1  1
 26 30  1  0
 31 32  1  0
 31 33  1  0
 32 34  1  0
 33 35  1  0
 34 36  1  0
 34 37  1  1
 35 36  1  0
 35 39  1  1
 36 38  1  1
 40 37  1  1
 40 41  1  0
 40 42  1  0
 41 43  1  0
 42 44  1  0
 43 45  1  0
 43 46  1  1
 44 45  1  0
 44 48  1  1
 45 47  1  6
 49 50  1  0
 49 51  1  0
 50 52  1  0
 51 53  1  0
 52 54  1  0
 52 55  1  1
 53 54  1  0
 53 57  1  1
 54 56  1  6
 58 55  1  1
 58 59  1  0
 58 60  1  0
 59 61  1  0
 60 62  1  0
 61 63  1  0
 61 64  1  1
 62 63  1  0
 62 66  1  1
 63 65  1  6
 67 64  1  1
 67 68  1  0
 67 69  1  0
 68 70  1  0
 69 71  1  0
 70 72  1  0
 70 73  1  0
 70 74  1  1
 71 72  1  0
 71 76  1  1
 72 75  1  6
M  END
>  <Formula>  (136) 
C52H76O24

>  <FW>  (136) 
1085.1454

>  <DSSTox_CID>  (136) 
3492

>  <NR-Aromatase>  (136) 
1

>  <NR-AR>  (136) 
0

>  <NR-ER-LBD>  (136) 
0

>  <SR-ATAD5>  (136) 
0

>  <SR-MMP>  (136) 
1

>  <SR-p53>  (136) 
1

$$$$
NCGC00181319-05
     RDKit          2D

 76 83  0  0  1  0  0  0  0  0999 V2000
    7.8792   -2.4741    0.0000 C   0  0  0  0  0  0  0  0  0  0  0  0
    8.5884   -2.8838    0.0000 C   0  0  0  0  0  0  0  0  0  0  0  0
    9.2975   -1.6389    0.0000 C   0  0  0  0  0  0  0  0  0  0  0  0
    9.2975   -2.4741    0.0000 C   0  0  0  0  0  0  0  0  0  0  0  0
    6.4452   -2.4741    0.0000 C   0  0  0  0  0  0  0  0  0  0  0  0
    7.1543   -2.8838    0.0000 C   0  0  0  0  0  0  0  0  0  0  0  0
    5.7203   -2.8838    0.0000 C   0  0  0  0  0  0  0  0  0  0  0  0
   10.7315   -1.6389    0.0000 C   0  0  0  0  0  0  0  0  0  0  0  0
    7.8792   -1.6389    0.0000 C   0  0  0  0  0  0  0  0  0  0  0  0
    5.0112   -2.4741    0.0000 C   0  0  0  0  0  0  0  0  0  0  0  0
    5.0112   -1.6389    0.0000 C   0  0  0  0  0  0  0  0  0  0  0  0
   10.0066   -1.2449    0.0000 C   0  0  0  0  0  0  0  0  0  0  0  0
    6.4452   -1.6389    0.0000 C   0  0  0  0  0  0  0  0  0  0  0  0
    8.5884   -1.2449    0.0000 C   0  0  0  0  0  0  0  0  0  0  0  0
   11.4406   -1.2449    0.0000 C   0  0  0  0  0  0  0  0  0  0  0  0
   10.0066   -2.8838    0.0000 O   0  0  0  0  0  0  0  0  0  0  0  0
    7.1543   -1.2449    0.0000 C   0  0  0  0  0  0  0  0  0  0  0  0
    5.7203   -1.2449    0.0000 C   0  0  0  0  0  0  0  0  0  0  0  0
    4.2863   -1.2449    0.0000 O   0  0  0  0  0  0  0  0  0  0  0  0
    8.5884   -3.7190    0.0000 O   0  0  0  0  0  0  0  0  0  0  0  0
   10.7315   -2.4741    0.0000 O   0  0  0  0  0  0  0  0  0  0  0  0
    7.1543   -3.7190    0.0000 O   0  0  0  0  0  0  0  0  0  0  0  0
    5.7203   -3.7190    0.0000 O   0  0  0  0  0  0  0  0  0  0  0  0
   12.1498   -1.6389    0.0000 C   0  0  0  0  0  0  0  0  0  0  0  0
   11.4406   -0.4097    0.0000 O   0  0  0  0  0  0  0  0  0  0  0  0
   10.0066   -0.4097    0.0000 O   0  0  0  0  0  0  0  0  0  0  0  0
    4.2863   -2.8838    0.0000 C   0  0  0  0  0  0  0  0  0  0  0  0
   12.1498   -2.4741    0.0000 O   0  0  0  0  0  0  0  0  0  0  0  0
   12.8747   -1.2449    0.0000 C   0  0  0  0  0  0  0  0  0  0  0  0
   10.7315    0.0000    0.0000 C   0  0  0  0  0  0  0  0  0  0  0  0
    3.5772   -1.6389    0.0000 C   0  0  0  0  0  0  0  0  0  0  0  0
    3.5772   -2.4741    0.0000 C   0  0  0  0  0  0  0  0  0  0  0  0
    2.8681   -1.2449    0.0000 O   0  0  0  0  0  0  0  0  0  0  0  0
    2.8681   -2.8838    0.0000 C   0  0  0  0  0  0  0  0  0  0  0  0
    2.1589   -1.6389    0.0000 C   0  0  0  0  0  0  0  0  0  0  0  0
    2.1589   -2.4741    0.0000 C   0  0  0  0  0  0  0  0  0  0  0  0
    2.8681   -3.7190    0.0000 O   0  0  0  0  0  0  0  0  0  0  0  0
    1.4340   -2.8838    0.0000 O   0  0  0  0  0  0  0  0  0  0  0  0
    1.4340   -1.2449    0.0000 C   0  0  0  0  0  0  0  0  0  0  0  0
    2.1589   -4.1287    0.0000 C   0  0  0  0  0  0  0  0  0  0  0  0
    2.1589   -4.9481    0.0000 C   0  0  0  0  0  0  0  0  0  0  0  0
    1.4340   -3.7190    0.0000 O   0  0  0  0  0  0  0  0  0  0  0  0
    1.4340   -5.3736    0.0000 C   0  0  0  0  0  0  0  0  0  0  0  0
    0.7249   -4.1287    0.0000 C   0  0  0  0  0  0  0  0  0  0  0  0
    0.7249   -4.9481    0.0000 C   0  0  0  0  0  0  0  0  0  0  0  0
    1.4340   -6.1931    0.0000 O   0  0  0  0  0  0  0  0  0  0  0  0
    0.0000   -5.3736    0.0000 O   0  0  0  0  0  0  0  0  0  0  0  0
    0.0000   -3.7190    0.0000 C   0  0  0  0  0  0  0  0  0  0  0  0
   10.0066   -3.7190    0.0000 C   0  0  0  0  0  0  0  0  0  0  0  0
   10.7315   -4.1287    0.0000 C   0  0  0  0  0  0  0  0  0  0  0  0
    9.2975   -4.1287    0.0000 O   0  0  0  0  0  0  0  0  0  0  0  0
   10.7315   -4.9481    0.0000 C   0  0  0  0  0  0  0  0  0  0  0  0
    9.2975   -4.9481    0.0000 C   0  0  0  0  0  0  0  0  0  0  0  0
   10.0066   -5.3736    0.0000 C   0  0  0  0  0  0  0  0  0  0  0  0
   11.4406   -5.3736    0.0000 O   0  0  0  0  0  0  0  0  0  0  0  0
   10.0066   -6.1931    0.0000 O   0  0  0  0  0  0  0  0  0  0  0  0
    8.5884   -5.3736    0.0000 C   0  0  0  0  0  0  0  0  0  0  0  0
   12.1813   -4.9797    0.0000 C   0  0  0  0  0  0  0  0  0  0  0  0
   12.1813   -4.1603    0.0000 C   0  0  0  0  0  0  0  0  0  0  0  0
   12.8904   -5.3894    0.0000 O   0  0  0  0  0  0  0  0  0  0  0  0
   12.8904   -3.7348    0.0000 C   0  0  0  0  0  0  0  0  0  0  0  0
   13.6153   -4.9797    0.0000 C   0  0  0  0  0  0  0  0  0  0  0  0
   13.6153   -4.1603    0.0000 C   0  0  0  0  0  0  0  0  0  0  0  0
   12.8904   -2.9153    0.0000 O   0  0  0  0  0  0  0  0  0  0  0  0
   14.3245   -3.7348    0.0000 O   0  0  0  0  0  0  0  0  0  0  0  0
   14.3245   -5.3894    0.0000 C   0  0  0  0  0  0  0  0  0  0  0  0
   13.6153   -2.5056    0.0000 C   0  0  0  0  0  0  0  0  0  0  0  0
   13.6153   -1.6861    0.0000 C   0  0  0  0  0  0  0  0  0  0  0  0
   14.3245   -2.9153    0.0000 O   0  0  0  0  0  0  0  0  0  0  0  0
   14.3245   -1.2607    0.0000 C   0  0  0  0  0  0  0  0  0  0  0  0
   15.0493   -2.5056    0.0000 C   0  0  0  0  0  0  0  0  0  0  0  0
   15.0493   -1.6861    0.0000 C   0  0  0  0  0  0  0  0  0  0  0  0
   13.9148   -0.5516    0.0000 O   0  0  0  0  0  0  0  0  0  0  0  0
   14.7499   -0.5516    0.0000 C   0  0  0  0  0  0  0  0  0  0  0  0
   15.7585   -1.2607    0.0000 O   0  0  0  0  0  0  0  0  0  0  0  0
   15.7585   -2.9153    0.0000 C   0  0  0  0  0  0  0  0  0  0  0  0
  1  2  1  0
  1  6  1  0
  1  9  2  0
  2  4  1  0
  2 20  2  0
  3 14  1  0
  3 12  1  0
  3  4  1  0
  4 16  1  6
  5  6  2  0
  5  7  1  0
  5 13  1  0
  6 22  1  0
  7 10  2  0
  7 23  1  0
  8 12  1  0
  8 15  1  0
  8 21  2  0
  9 14  1  0
  9 17  1  0
 10 27  1  0
 10 11  1  0
 11 18  2  0
 11 19  1  0
 12 26  1  6
 13 17  2  0
 13 18  1  0
 15 24  1  0
 15 25  1  1
 49 16  1  1
 31 19  1  1
 24 28  1  0
 24 29  1  1
 26 30  1  0
 31 32  1  0
 31 33  1  0
 32 34  1  0
 33 35  1  0
 34 36  1  0
 34 37  1  1
 35 36  1  0
 35 39  1  1
 36 38  1  1
 40 37  1  1
 40 41  1  0
 40 42  1  0
 41 43  1  0
 42 44  1  0
 43 45  1  0
 43 46  1  1
 44 45  1  0
 44 48  1  1
 45 47  1  6
 49 50  1  0
 49 51  1  0
 50 52  1  0
 51 53  1  0
 52 54  1  0
 52 55  1  1
 53 54  1  0
 53 57  1  1
 54 56  1  6
 58 55  1  1
 58 59  1  0
 58 60  1  0
 59 61  1  0
 60 62  1  0
 61 63  1  0
 61 64  1  1
 62 63  1  0
 62 66  1  1
 63 65  1  6
 67 64  1  1
 67 68  1  0
 67 69  1  0
 68 70  1  0
 69 71  1  0
 70 72  1  0
 70 73  1  0
 70 74  1  1
 71 72  1  0
 71 76  1  1
 72 75  1  6
M  END
>  <Formula>  (137) 
C52H76O24

>  <FW>  (137) 
1085.1454

>  <DSSTox_CID>  (137) 
3492

>  <NR-Aromatase>  (137) 
1

>  <NR-AR>  (137) 
0

>  <NR-ER-LBD>  (137) 
0

>  <SR-ATAD5>  (137) 
0

>  <SR-MMP>  (137) 
1

>  <SR-p53>  (137) 
1

$$$$
NCGC00095835-01
     RDKit          2D

 38 39  0  0  0  0  0  0  0  0999 V2000
    6.3413   -3.3128    0.0000 C   0  0  0  0  0  0  0  0  0  0  0  0
    5.6302   -2.8945    0.0000 C   0  0  0  0  0  0  0  0  0  0  0  0
    4.9274   -3.3128    0.0000 O   0  0  0  0  0  0  0  0  0  0  0  0
    4.2163   -2.0831    0.0000 O   0  0  0  0  0  0  0  0  0  0  0  0
    7.0272   -4.5259    0.0000 N   0  0  0  0  0  0  0  0  0  0  0  0
    6.3413   -4.1243    0.0000 C   0  0  0  0  0  0  0  0  0  0  0  0
    5.6302   -4.5259    0.0000 C   0  0  0  0  0  0  0  0  0  0  0  0
    4.9274   -4.1243    0.0000 O   0  0  0  0  0  0  0  0  0  0  0  0
    4.2163   -4.5259    0.0000 C   0  0  0  0  0  0  0  0  0  0  0  0
    0.0000   -2.8945    0.0000 C   0  0  0  0  0  0  0  0  0  0  0  0
    1.4138   -2.0831    0.0000 O   0  0  0  0  0  0  0  0  0  0  0  0
    0.7027   -3.3128    0.0000 O   0  0  0  0  0  0  0  0  0  0  0  0
    1.4138   -2.8945    0.0000 C   0  0  0  0  0  0  0  0  0  0  0  0
    4.2163   -2.8945    0.0000 C   0  0  0  0  0  0  0  0  0  0  0  0
    1.4138   -4.5259    0.0000 C   0  0  0  0  0  0  0  0  0  0  0  0
    4.2498   -1.6564    0.0000 Cl  0  0  0  0  0  0  0  0  0  0  0  0
    2.0998   -0.4099    0.0000 C   0  0  0  0  0  0  0  0  0  0  0  0
    2.0998   -1.2465    0.0000 C   0  0  0  0  0  0  0  0  0  0  0  0
    2.8193    0.0000    0.0000 C   0  0  0  0  0  0  0  0  0  0  0  0
    2.8193   -1.6564    0.0000 C   0  0  0  0  0  0  0  0  0  0  0  0
    3.5303   -0.4099    0.0000 C   0  0  0  0  0  0  0  0  0  0  0  0
    3.5303   -1.2465    0.0000 C   0  0  0  0  0  0  0  0  0  0  0  0
    3.5220   -3.3128    0.0000 C   0  0  0  0  0  0  0  0  0  0  0  0
    3.5220   -4.1243    0.0000 C   0  0  0  0  0  0  0  0  0  0  0  0
    2.8193   -2.8945    0.0000 C   0  0  0  0  0  0  0  0  0  0  0  0
    2.8193   -4.5259    0.0000 N   0  0  0  0  0  0  0  0  0  0  0  0
    2.1082   -3.3128    0.0000 C   0  0  0  0  0  0  0  0  0  0  0  0
    2.1082   -4.1243    0.0000 C   0  0  0  0  0  0  0  0  0  0  0  0
    5.7557   -0.9202    0.0000 S   0  0  0  0  0  0  0  0  0  0  0  0
    5.7557   -0.0502    0.0000 O   0  0  0  0  0  0  0  0  0  0  0  0
    5.7557   -1.7736    0.0000 O   0  0  0  0  0  0  0  0  0  0  0  0
    6.6257   -0.9202    0.0000 C   0  0  0  0  0  0  0  0  0  0  0  0
    4.8856   -0.9202    0.0000 O   0  0  0  0  0  0  0  0  0  0  0  0
    7.0607   -1.6564    0.0000 C   0  0  0  0  0  0  0  0  0  0  0  0
    7.0607   -0.1673    0.0000 C   0  0  0  0  0  0  0  0  0  0  0  0
    7.9307   -0.1673    0.0000 C   0  0  0  0  0  0  0  0  0  0  0  0
    7.9307   -1.6564    0.0000 C   0  0  0  0  0  0  0  0  0  0  0  0
    8.3658   -0.9202    0.0000 C   0  0  0  0  0  0  0  0  0  0  0  0
  1  2  1  0
  2  3  1  0
  3 14  1  0
  4 14  2  0
  5  6  1  0
  6  7  1  0
  7  8  1  0
  8  9  1  0
  9 24  1  0
 10 12  1  0
 11 13  2  0
 12 13  1  0
 13 27  1  0
 14 23  1  0
 15 28  1  0
 16 22  1  0
 17 18  2  0
 17 19  1  0
 18 20  1  0
 19 21  2  0
 20 22  2  0
 20 25  1  0
 21 22  1  0
 23 24  2  0
 23 25  1  0
 24 26  1  0
 25 27  1  0
 26 28  1  0
 27 28  2  0
 29 30  2  0
 29 31  2  0
 29 32  1  0
 29 33  1  0
 32 34  2  0
 32 35  1  0
 34 37  1  0
 35 36  2  0
 36 38  1  0
 37 38  2  0
M  END
>  <Formula>  (138) 
C26H31ClN2O8S

>  <FW>  (138) 
567.0509 (408.8759+158.1750)

>  <DSSTox_CID>  (138) 
23909

>  <NR-Aromatase>  (138) 
1

>  <NR-AR>  (138) 
0

>  <NR-ER>  (138) 
0

>  <NR-PPAR-gamma>  (138) 
0

>  <NR-AhR>  (138) 
0

>  <SR-ATAD5>  (138) 
0

$$$$
NCGC00260031-01
     RDKit          2D

 90 96  0  0  1  0  0  0  0  0999 V2000
    7.9325   -7.8604    0.0000 C   0  0  0  0  0  0  0  0  0  0  0  0
    7.9325   -8.6824    0.0000 C   0  0  0  0  0  0  0  0  0  0  0  0
    8.6392   -7.4565    0.0000 C   0  0  0  0  0  0  0  0  0  0  0  0
    7.2113   -7.4565    0.0000 N   0  0  0  0  0  0  0  0  0  0  0  0
    7.2113   -9.1007    0.0000 O   0  0  0  0  0  0  0  0  0  0  0  0
    8.6392   -9.1007    0.0000 C   0  0  0  0  0  0  0  0  0  0  0  0
    8.6392   -6.6345    0.0000 C   0  0  0  0  0  0  0  0  0  0  0  0
    9.3603   -7.8604    0.0000 C   0  0  0  0  0  0  0  0  0  0  0  0
    6.5046   -7.8604    0.0000 C   0  0  0  0  0  0  0  0  0  0  0  0
    6.5046   -8.6824    0.0000 C   0  0  0  0  0  0  0  0  0  0  0  0
    9.3603   -8.6824    0.0000 C   0  0  0  0  0  0  0  0  0  0  0  0
    8.6392   -9.9228    0.0000 C   0  0  0  0  0  0  0  0  0  0  0  0
    9.3603   -6.2162    0.0000 N   0  0  0  0  0  0  0  0  0  0  0  0
    7.9325   -6.2162    0.0000 O   0  0  0  0  0  0  0  0  0  0  0  0
   10.0670   -7.4565    0.0000 N   0  0  0  0  0  0  0  0  0  0  0  0
    5.7835   -7.4565    0.0000 C   0  0  0  0  0  0  0  0  0  0  0  0
    5.7835   -9.1007    0.0000 C   0  0  0  0  0  0  0  0  0  0  0  0
   10.0670   -9.1007    0.0000 O   0  0  0  0  0  0  0  0  0  0  0  0
    5.7835   -6.6345    0.0000 C   0  0  0  0  0  0  0  0  0  0  0  0
    5.0768   -7.8604    0.0000 C   0  0  0  0  0  0  0  0  0  0  0  0
    5.0768   -8.6824    0.0000 C   0  0  0  0  0  0  0  0  0  0  0  0
    5.7835   -9.9228    0.0000 C   0  0  0  0  0  0  0  0  0  0  0  0
    5.0768   -6.2162    0.0000 N   0  0  0  0  0  0  0  0  0  0  0  0
    6.5046   -6.2162    0.0000 O   0  0  0  0  0  0  0  0  0  0  0  0
    9.3603   -5.3508    0.0000 C   0  0  0  0  0  0  0  0  0  0  0  0
    8.6103   -4.9181    0.0000 C   0  0  0  0  0  0  0  0  0  0  0  0
   10.0958   -4.9181    0.0000 C   0  0  0  0  0  0  0  0  0  0  0  0
    8.6103   -1.5721    0.0000 N   0  0  0  0  0  0  0  0  0  0  0  0
    7.8748   -5.3508    0.0000 O   0  0  0  0  0  0  0  0  0  0  0  0
   10.0958   -4.0672    0.0000 C   0  0  0  0  0  0  0  0  0  0  0  0
   10.8603   -5.3364    0.0000 O   0  0  0  0  0  0  0  0  0  0  0  0
   11.5670   -4.9325    0.0000 C   0  0  0  0  0  0  0  0  0  0  0  0
   11.5670   -4.1105    0.0000 O   0  0  0  0  0  0  0  0  0  0  0  0
    9.2882   -1.2403    0.0000 C   0  0  0  0  0  0  0  0  0  0  0  0
    9.2882   -0.4183    0.0000 C   0  0  0  0  0  0  0  0  0  0  0  0
   10.7593   -1.6442    0.0000 C   0  0  0  0  0  0  0  0  0  0  0  0
   12.3314   -1.0096    0.0000 N   0  0  0  0  0  0  0  0  0  0  0  0
   10.7593   -2.4663    0.0000 O   0  0  0  0  0  0  0  0  0  0  0  0
   12.5910   -0.2163    0.0000 C   0  0  0  0  0  0  0  0  0  0  0  0
   12.9948   -1.4999    0.0000 C   0  0  0  0  0  0  0  0  0  0  0  0
   13.4131   -0.2163    0.0000 C   0  0  0  0  0  0  0  0  0  0  0  0
   13.6727   -1.0096    0.0000 C   0  0  0  0  0  0  0  0  0  0  0  0
    8.5671    0.0000    0.0000 C   0  0  0  0  0  0  0  0  0  0  0  0
    9.9949    0.0000    0.0000 C   0  0  0  0  0  0  0  0  0  0  0  0
   12.9948   -2.4519    0.0000 C   0  0  0  0  0  0  0  0  0  0  0  0
   12.3025   -2.8701    0.0000 O   0  0  0  0  0  0  0  0  0  0  0  0
   13.7160   -2.8701    0.0000 N   0  0  0  0  0  0  0  0  0  0  0  0
   13.7160   -3.6922    0.0000 C   0  0  0  0  0  0  0  0  0  0  0  0
   14.4227   -2.4519    0.0000 C   0  0  0  0  0  0  0  0  0  0  0  0
   12.9948   -4.1105    0.0000 C   0  0  0  0  0  0  0  0  0  0  0  0
   12.3025   -3.6922    0.0000 O   0  0  0  0  0  0  0  0  0  0  0  0
   12.9948   -4.9325    0.0000 N   0  0  0  0  0  0  0  0  0  0  0  0
   13.7160   -5.3364    0.0000 C   0  0  0  0  0  0  0  0  0  0  0  0
   12.3025   -5.3364    0.0000 C   0  0  0  0  0  0  0  0  0  0  0  0
   12.3025   -6.1585    0.0000 C   0  0  0  0  0  0  0  0  0  0  0  0
   12.9948   -6.5767    0.0000 C   0  0  0  0  0  0  0  0  0  0  0  0
   11.5670   -6.5767    0.0000 C   0  0  0  0  0  0  0  0  0  0  0  0
    5.0768   -5.3508    0.0000 C   0  0  0  0  0  0  0  0  0  0  0  0
    5.8268   -4.9181    0.0000 C   0  0  0  0  0  0  0  0  0  0  0  0
    4.3412   -4.9181    0.0000 C   0  0  0  0  0  0  0  0  0  0  0  0
    5.8268   -1.5721    0.0000 N   0  0  0  0  0  0  0  0  0  0  0  0
    6.5623   -5.3508    0.0000 O   0  0  0  0  0  0  0  0  0  0  0  0
    4.3412   -4.0672    0.0000 C   0  0  0  0  0  0  0  0  0  0  0  0
    3.5624   -5.3364    0.0000 O   0  0  0  0  0  0  0  0  0  0  0  0
    2.8557   -4.9325    0.0000 C   0  0  0  0  0  0  0  0  0  0  0  0
    2.8557   -4.1105    0.0000 O   0  0  0  0  0  0  0  0  0  0  0  0
    5.1489   -1.2403    0.0000 C   0  0  0  0  0  0  0  0  0  0  0  0
    5.1489   -0.4183    0.0000 C   0  0  0  0  0  0  0  0  0  0  0  0
    3.6778   -1.6442    0.0000 C   0  0  0  0  0  0  0  0  0  0  0  0
    2.0913   -1.0096    0.0000 N   0  0  0  0  0  0  0  0  0  0  0  0
    3.6778   -2.4663    0.0000 O   0  0  0  0  0  0  0  0  0  0  0  0
    1.8317   -0.2163    0.0000 C   0  0  0  0  0  0  0  0  0  0  0  0
    1.4278   -1.4999    0.0000 C   0  0  0  0  0  0  0  0  0  0  0  0
    1.0096   -0.2163    0.0000 C   0  0  0  0  0  0  0  0  0  0  0  0
    0.7644   -1.0096    0.0000 C   0  0  0  0  0  0  0  0  0  0  0  0
    5.8556    0.0000    0.0000 C   0  0  0  0  0  0  0  0  0  0  0  0
    4.4278    0.0000    0.0000 C   0  0  0  0  0  0  0  0  0  0  0  0
    1.4278   -2.4519    0.0000 C   0  0  0  0  0  0  0  0  0  0  0  0
    2.1345   -2.8701    0.0000 O   0  0  0  0  0  0  0  0  0  0  0  0
    0.7067   -2.8701    0.0000 N   0  0  0  0  0  0  0  0  0  0  0  0
    0.7067   -3.6922    0.0000 C   0  0  0  0  0  0  0  0  0  0  0  0
    0.0000   -2.4519    0.0000 C   0  0  0  0  0  0  0  0  0  0  0  0
    1.4278   -4.1105    0.0000 C   0  0  0  0  0  0  0  0  0  0  0  0
    2.1345   -3.6922    0.0000 O   0  0  0  0  0  0  0  0  0  0  0  0
    1.4278   -4.9325    0.0000 N   0  0  0  0  0  0  0  0  0  0  0  0
    0.7067   -5.3364    0.0000 C   0  0  0  0  0  0  0  0  0  0  0  0
    2.1345   -5.3364    0.0000 C   0  0  0  0  0  0  0  0  0  0  0  0
    2.1345   -6.1585    0.0000 C   0  0  0  0  0  0  0  0  0  0  0  0
    1.4278   -6.5767    0.0000 C   0  0  0  0  0  0  0  0  0  0  0  0
    2.8557   -6.5767    0.0000 C   0  0  0  0  0  0  0  0  0  0  0  0
  1  2  1  0
  1  3  1  0
  1  4  2  0
  2  5  1  0
  2  6  2  0
  3  7  1  0
  3  8  2  0
  4  9  1  0
  5 10  1  0
  6 11  1  0
  6 12  1  0
  7 13  1  0
  7 14  2  0
  8 15  1  0
  8 11  1  0
  9 16  2  0
  9 10  1  0
 10 17  2  0
 11 18  2  0
 25 13  1  6
 16 19  1  0
 16 20  1  0
 17 21  1  0
 17 22  1  0
 19 23  1  0
 19 24  2  0
 20 21  2  0
 58 23  1  1
 25 26  1  0
 25 27  1  0
 26 28  1  0
 26 29  2  0
 27 30  1  1
 27 31  1  0
 28 34  1  0
 31 32  1  0
 32 33  2  0
 32 54  1  0
 34 35  1  6
 34 36  1  0
 35 43  1  0
 35 44  1  0
 36 37  1  0
 36 38  2  0
 37 39  1  0
 37 40  1  0
 39 41  1  0
 40 42  1  1
 40 45  1  0
 41 42  1  0
 45 46  2  0
 45 47  1  0
 47 48  1  0
 47 49  1  0
 48 50  1  0
 50 51  2  0
 50 52  1  0
 52 53  1  0
 52 54  1  0
 54 55  1  1
 55 56  1  0
 55 57  1  0
 58 59  1  0
 58 60  1  0
 59 61  1  0
 59 62  2  0
 60 63  1  6
 60 64  1  0
 61 67  1  0
 64 65  1  0
 65 66  2  0
 65 87  1  0
 67 68  1  1
 67 69  1  0
 68 76  1  0
 68 77  1  0
 69 70  1  0
 69 71  2  0
 70 72  1  0
 70 73  1  0
 72 74  1  0
 73 75  1  6
 73 78  1  0
 74 75  1  0
 78 79  2  0
 78 80  1  0
 80 81  1  0
 80 82  1  0
 81 83  1  0
 83 84  2  0
 83 85  1  0
 85 86  1  0
 85 87  1  0
 87 88  1  6
 88 89  1  0
 88 90  1  0
M  END
>  <Formula>  (139) 
C62H86N12O16

>  <FW>  (139) 
1255.4170

>  <DSSTox_CID>  (139) 
31

>  <NR-Aromatase>  (139) 
1

>  <NR-AR>  (139) 
0

>  <NR-ER-LBD>  (139) 
0

>  <NR-AhR>  (139) 
0

>  <SR-HSE>  (139) 
0

>  <SR-p53>  (139) 
1

$$$$
NCGC00183008-01
     RDKit          2D

 34 38  0  0  0  0  0  0  0  0999 V2000
    7.3034   -1.2660    0.0000 N   0  0  0  0  0  0  0  0  0  0  0  0
    8.1254   -1.2660    0.0000 C   0  0  0  0  0  0  0  0  0  0  0  0
    8.6451   -1.9085    0.0000 C   0  0  0  0  0  0  0  0  0  0  0  0
    8.4561   -2.7211    0.0000 N   0  0  0  0  0  0  0  0  0  0  0  0
    7.7097   -3.0801    0.0000 C   0  0  0  0  0  0  0  0  0  0  0  0
    6.9728   -2.7211    0.0000 C   0  0  0  0  0  0  0  0  0  0  0  0
    6.7838   -1.9085    0.0000 C   0  0  0  0  0  0  0  0  0  0  0  0
    7.7097    0.0000    0.0000 N   0  0  0  0  0  0  0  0  0  0  0  0
    8.3805   -0.4819    0.0000 N   0  0  0  0  0  0  0  0  0  0  0  0
    7.0483   -0.4819    0.0000 C   0  0  0  0  0  0  0  0  0  0  0  0
    5.9618   -1.8424    0.0000 S   0  0  0  0  0  0  0  0  0  0  0  0
    5.6406   -2.5982    0.0000 C   0  0  0  0  0  0  0  0  0  0  0  0
    6.2642   -3.1462    0.0000 C   0  0  0  0  0  0  0  0  0  0  0  0
    7.7097   -3.9021    0.0000 C   0  0  0  0  0  0  0  0  0  0  0  0
    8.4278   -4.3178    0.0000 C   0  0  0  0  0  0  0  0  0  0  0  0
    7.0011   -4.3178    0.0000 C   0  0  0  0  0  0  0  0  0  0  0  0
    8.4278   -5.1398    0.0000 C   0  0  0  0  0  0  0  0  0  0  0  0
    7.0011   -5.1398    0.0000 C   0  0  0  0  0  0  0  0  0  0  0  0
    7.7097   -5.5555    0.0000 C   0  0  0  0  0  0  0  0  0  0  0  0
    9.1458   -3.9021    0.0000 Cl  0  0  0  0  0  0  0  0  0  0  0  0
    4.8374   -2.7778    0.0000 C   0  0  0  0  0  0  0  0  0  0  0  0
    4.5918   -3.5714    0.0000 C   0  0  0  0  0  0  0  0  0  0  0  0
    3.7793   -3.7604    0.0000 C   0  0  0  0  0  0  0  0  0  0  0  0
    3.5431   -4.5446    0.0000 C   0  0  0  0  0  0  0  0  0  0  0  0
    3.2218   -3.1462    0.0000 C   0  0  0  0  0  0  0  0  0  0  0  0
    2.7305   -4.7335    0.0000 C   0  0  0  0  0  0  0  0  0  0  0  0
    2.4188   -3.3352    0.0000 C   0  0  0  0  0  0  0  0  0  0  0  0
    2.1731   -4.1194    0.0000 C   0  0  0  0  0  0  0  0  0  0  0  0
    1.3700   -4.3084    0.0000 C   0  0  0  0  0  0  0  0  0  0  0  0
    0.8031   -3.7037    0.0000 C   0  0  0  0  0  0  0  0  0  0  0  0
    1.0487   -2.9101    0.0000 C   0  0  0  0  0  0  0  0  0  0  0  0
    0.0000   -3.8832    0.0000 C   0  0  0  0  0  0  0  0  0  0  0  0
    9.4482   -1.7290    0.0000 C   0  0  0  0  0  0  0  0  0  0  0  0
    6.2642   -0.2267    0.0000 C   0  0  0  0  0  0  0  0  0  0  0  0
  1  2  1  0
  1  7  1  0
  1 10  1  0
  2  3  1  0
  2  9  2  0
  3  4  1  0
  3 33  1  0
  4  5  2  0
  5  6  1  0
  5 14  1  0
  6  7  2  0
  6 13  1  0
  7 11  1  0
  8  9  1  0
  8 10  2  0
 10 34  1  0
 11 12  1  0
 12 13  2  0
 12 21  1  0
 14 15  2  0
 14 16  1  0
 15 17  1  0
 15 20  1  0
 16 18  2  0
 17 19  2  0
 18 19  1  0
 21 22  1  0
 22 23  1  0
 23 24  2  0
 23 25  1  0
 24 26  1  0
 25 27  2  0
 26 28  2  0
 27 28  1  0
 28 29  1  0
 29 30  1  0
 30 31  1  0
 30 32  1  0
M  END
>  <Formula>  (140) 
C28H29ClN4S

>  <FW>  (140) 
489.0747

>  <DSSTox_CID>  (140) 
312

>  <NR-Aromatase>  (140) 
1

>  <NR-AR>  (140) 
0

>  <NR-ER-LBD>  (140) 
0

>  <NR-AhR>  (140) 
0

>  <SR-ARE>  (140) 
1

>  <SR-ATAD5>  (140) 
0

>  <SR-MMP>  (140) 
1

$$$$
NCGC00167481-01
     RDKit          2D

 59 64  0  0  1  0  0  0  0  0999 V2000
    6.0630   -1.3942    0.0000 Cl  0  0  0  0  0  0  0  0  0  0  0  0
    0.0000   -5.3339    0.0000 C   0  0  0  0  0  0  0  0  0  0  0  0
    0.7163   -4.9245    0.0000 O   0  0  0  0  0  0  0  0  0  0  0  0
    1.4198   -5.3339    0.0000 C   0  0  0  0  0  0  0  0  0  0  0  0
    1.4198   -6.1525    0.0000 O   0  0  0  0  0  0  0  0  0  0  0  0
    2.1361   -4.9245    0.0000 C   0  0  0  0  0  0  0  0  0  0  0  0
    2.1361   -4.0932    0.0000 C   0  0  0  0  0  0  0  0  0  0  0  0
    1.4198   -3.6838    0.0000 C   0  0  0  0  0  0  0  0  0  0  0  0
    1.4198   -2.8652    0.0000 C   0  0  0  0  0  0  0  0  0  0  0  0
    0.7163   -2.4559    0.0000 C   0  0  0  0  0  0  0  0  0  0  0  0
    0.0000   -2.8652    0.0000 O   0  0  0  0  0  0  0  0  0  0  0  0
    0.7163   -1.6373    0.0000 C   0  0  0  0  0  0  0  0  0  0  0  0
    0.0000   -1.2279    0.0000 C   0  0  0  0  0  0  0  0  0  0  0  0
    0.0000   -0.4093    0.0000 C   0  0  0  0  0  0  0  0  0  0  0  0
    0.7163    0.0000    0.0000 C   0  0  0  0  0  0  0  0  0  0  0  0
    1.4198   -0.4093    0.0000 C   0  0  0  0  0  0  0  0  0  0  0  0
    2.1361    0.0000    0.0000 O   0  0  0  0  0  0  0  0  0  0  0  0
    1.4198   -1.2279    0.0000 C   0  0  0  0  0  0  0  0  0  0  0  0
    2.1361   -1.6373    0.0000 C   0  0  0  0  0  0  0  0  0  0  0  0
    2.8396   -1.2279    0.0000 O   0  0  0  0  0  0  0  0  0  0  0  0
    2.1361   -2.4559    0.0000 C   0  0  0  0  0  0  0  0  0  0  0  0
    2.8396   -2.8652    0.0000 C   0  0  0  0  0  0  0  0  0  0  0  0
    3.5559   -2.4559    0.0000 O   0  0  0  0  0  0  0  0  0  0  0  0
    2.8396   -3.6838    0.0000 C   0  0  0  0  0  0  0  0  0  0  0  0
    3.5559   -4.0932    0.0000 C   0  0  0  0  0  0  0  0  0  0  0  0
    3.5559   -4.9245    0.0000 C   0  0  0  0  0  0  0  0  0  0  0  0
    2.8396   -5.3339    0.0000 C   0  0  0  0  0  0  0  0  0  0  0  0
    2.3152   -5.9606    0.0000 O   0  0  0  0  0  0  0  0  0  0  0  0
    3.3640   -5.9606    0.0000 C   0  0  0  0  0  0  0  0  0  0  0  0
    3.0954   -6.7281    0.0000 C   0  0  0  0  0  0  0  0  0  0  0  0
    4.2595   -3.6838    0.0000 O   0  0  0  0  0  0  0  0  0  0  0  0
    4.9757   -4.0932    0.0000 C   0  0  0  0  0  0  0  0  0  0  0  0
    5.6792   -3.6838    0.0000 O   0  0  0  0  0  0  0  0  0  0  0  0
    6.3955   -4.0932    0.0000 C   0  0  0  0  0  0  0  0  0  0  0  0
    7.1118   -3.6838    0.0000 C   0  0  0  0  0  0  0  0  0  0  0  0
    6.3955   -4.9245    0.0000 C   0  0  0  0  0  0  0  0  0  0  0  0
    7.1118   -5.3339    0.0000 O   0  0  0  0  0  0  0  0  0  0  0  0
    7.8153   -4.9245    0.0000 C   0  0  0  0  0  0  0  0  0  0  0  0
    7.8153   -4.0932    0.0000 C   0  0  0  0  0  0  0  0  0  0  0  0
    8.5317   -3.6838    0.0000 C   0  0  0  0  0  0  0  0  0  0  0  0
    8.5317   -2.8652    0.0000 O   0  0  0  0  0  0  0  0  0  0  0  0
    9.2352   -4.0932    0.0000 C   0  0  0  0  0  0  0  0  0  0  0  0
    9.9515   -3.6838    0.0000 O   0  0  0  0  0  0  0  0  0  0  0  0
   10.6550   -4.0932    0.0000 C   0  0  0  0  0  0  0  0  0  0  0  0
   11.3713   -3.6838    0.0000 C   0  0  0  0  0  0  0  0  0  0  0  0
   12.0748   -4.0932    0.0000 C   0  0  0  0  0  0  0  0  0  0  0  0
   12.0748   -4.9245    0.0000 C   0  0  0  0  0  0  0  0  0  0  0  0
   12.7911   -5.3339    0.0000 O   0  0  0  0  0  0  0  0  0  0  0  0
   11.3713   -5.3339    0.0000 C   0  0  0  0  0  0  0  0  0  0  0  0
   11.3713   -6.1525    0.0000 C   0  0  0  0  0  0  0  0  0  0  0  0
   10.6550   -4.9245    0.0000 O   0  0  0  0  0  0  0  0  0  0  0  0
    9.2352   -4.9245    0.0000 C   0  0  0  0  0  0  0  0  0  0  0  0
    9.9515   -5.3339    0.0000 C   0  0  0  0  0  0  0  0  0  0  0  0
    8.5317   -5.3339    0.0000 O   0  0  0  0  0  0  0  0  0  0  0  0
    5.6792   -5.3339    0.0000 C   0  0  0  0  0  0  0  0  0  0  0  0
    4.9757   -4.9245    0.0000 C   0  0  0  0  0  0  0  0  0  0  0  0
    5.6792   -6.1525    0.0000 N   0  0  0  0  0  0  0  0  0  0  0  0
    6.3955   -6.5618    0.0000 C   0  0  0  0  0  0  0  0  0  0  0  0
    4.9757   -6.5618    0.0000 C   0  0  0  0  0  0  0  0  0  0  0  0
  2  3  1  0
  3  4  1  0
  4  5  2  0
  6  4  1  6
  6  7  1  0
  6 27  1  0
  7  8  1  0
  7 24  2  0
  8  9  2  0
  9 10  1  0
  9 21  1  0
 10 11  2  0
 10 12  1  0
 12 13  2  0
 12 18  1  0
 13 14  1  0
 14 15  2  0
 15 16  1  0
 16 17  1  0
 16 18  2  0
 18 19  1  0
 19 20  2  0
 19 21  1  0
 21 22  2  0
 22 23  1  0
 22 24  1  0
 24 25  1  0
 25 26  1  0
 25 31  1  1
 26 27  1  0
 27 28  1  1
 27 29  1  0
 29 30  1  0
 32 31  1  6
 32 33  1  0
 32 56  1  0
 33 34  1  0
 34 35  1  1
 34 36  1  0
 36 37  1  1
 36 55  1  0
 38 37  1  1
 38 39  1  0
 38 54  1  0
 39 40  1  0
 40 41  1  6
 40 42  1  0
 42 43  1  6
 42 52  1  0
 44 43  1  1
 44 45  1  0
 44 51  1  0
 45 46  1  0
 46 47  1  0
 47 48  2  0
 47 49  1  0
 49 50  1  6
 49 51  1  0
 52 53  1  6
 52 54  1  0
 55 56  1  0
 55 57  1  1
 57 58  1  0
 57 59  1  0
M  END
>  <Formula>  (141) 
C42H54ClNO15

>  <FW>  (141) 
848.3289 (36.4609+811.8679)

>  <DSSTox_CID>  (141) 
26658

>  <NR-Aromatase>  (141) 
1

>  <NR-AR>  (141) 
0

>  <NR-AR-LBD>  (141) 
1

>  <NR-ER>  (141) 
1

>  <SR-MMP>  (141) 
1

>  <SR-p53>  (141) 
1

$$$$
NCGC00159544-01
     RDKit          2D

 32 37  0  0  0  0  0  0  0  0999 V2000
    2.9966   -1.9384    0.0000 C   0  0  0  0  0  0  0  0  0  0  0  0
    2.2675   -1.5917    0.0000 N   0  0  0  0  0  0  0  0  0  0  0  0
    3.1833   -2.7565    0.0000 C   0  0  0  0  0  0  0  0  0  0  0  0
    3.5923   -1.3426    0.0000 C   0  0  0  0  0  0  0  0  0  0  0  0
    1.5028   -1.9384    0.0000 C   0  0  0  0  0  0  0  0  0  0  0  0
    2.3741   -0.7469    0.0000 C   0  0  0  0  0  0  0  0  0  0  0  0
    3.9124   -3.1655    0.0000 C   0  0  0  0  0  0  0  0  0  0  0  0
    2.6676   -3.3789    0.0000 O   0  0  0  0  0  0  0  0  0  0  0  0
    3.9124   -2.3208    0.0000 C   0  0  0  0  0  0  0  0  0  0  0  0
    3.1833   -0.6224    0.0000 C   0  0  0  0  0  0  0  0  0  0  0  0
    1.3516   -2.7565    0.0000 C   0  0  0  0  0  0  0  0  0  0  0  0
    0.9336   -1.3782    0.0000 C   0  0  0  0  0  0  0  0  0  0  0  0
    4.6860   -2.7031    0.0000 N   0  0  0  0  0  0  0  0  0  0  0  0
    1.8584   -3.3789    0.0000 C   0  0  0  0  0  0  0  0  0  0  0  0
    0.5869   -2.9966    0.0000 C   0  0  0  0  0  0  0  0  0  0  0  0
    0.1600   -1.6183    0.0000 C   0  0  0  0  0  0  0  0  0  0  0  0
    5.4062   -3.1032    0.0000 C   0  0  0  0  0  0  0  0  0  0  0  0
    4.6860   -1.8673    0.0000 C   0  0  0  0  0  0  0  0  0  0  0  0
    0.0000   -2.4275    0.0000 C   0  0  0  0  0  0  0  0  0  0  0  0
    6.1354   -2.7031    0.0000 C   0  0  0  0  0  0  0  0  0  0  0  0
    5.4062   -1.4849    0.0000 C   0  0  0  0  0  0  0  0  0  0  0  0
    6.1354   -1.8673    0.0000 C   0  0  0  0  0  0  0  0  0  0  0  0
    6.8378   -1.4583    0.0000 N   0  0  0  0  0  0  0  0  0  0  0  0
    7.4514   -2.0273    0.0000 C   0  0  0  0  0  0  0  0  0  0  0  0
    7.1490   -0.7024    0.0000 C   0  0  0  0  0  0  0  0  0  0  0  0
    8.1627   -1.5917    0.0000 C   0  0  0  0  0  0  0  0  0  0  0  0
    7.4514   -2.8276    0.0000 C   0  0  0  0  0  0  0  0  0  0  0  0
    8.0027   -0.7825    0.0000 N   0  0  0  0  0  0  0  0  0  0  0  0
    6.7845    0.0000    0.0000 O   0  0  0  0  0  0  0  0  0  0  0  0
    8.8919   -2.0273    0.0000 C   0  0  0  0  0  0  0  0  0  0  0  0
    8.1627   -3.2455    0.0000 C   0  0  0  0  0  0  0  0  0  0  0  0
    8.8919   -2.8276    0.0000 C   0  0  0  0  0  0  0  0  0  0  0  0
  1  2  1  0
  1  3  1  0
  1  4  2  0
  2  5  1  0
  2  6  1  0
  3  7  1  0
  3  8  1  0
  3  9  1  0
  4 10  1  0
  5 11  2  0
  5 12  1  0
  6 10  2  0
  7 13  1  0
  8 14  1  0
 11 15  1  0
 11 14  1  0
 12 16  2  0
 13 17  1  0
 13 18  1  0
 15 19  2  0
 16 19  1  0
 17 20  1  0
 18 21  1  0
 20 22  1  0
 21 22  1  0
 22 23  1  0
 23 24  1  0
 23 25  1  0
 24 26  2  0
 24 27  1  0
 25 28  1  0
 25 29  2  0
 26 30  1  0
 26 28  1  0
 27 31  2  0
 30 32  2  0
 31 32  1  0
M  END
>  <Formula>  (142) 
C26H28N4O2

>  <FW>  (142) 
428.5261

>  <DSSTox_CID>  (142) 
26091

>  <NR-Aromatase>  (142) 
1

>  <NR-AR>  (142) 
0

>  <NR-AR-LBD>  (142) 
0

>  <NR-ER-LBD>  (142) 
0

>  <NR-AhR>  (142) 
0

>  <SR-p53>  (142) 
0

$$$$
NCGC00260151-01
     RDKit          2D

 34 38  0  0  0  0  0  0  0  0999 V2000
    5.6475    0.0000    0.0000 O   0  0  0  0  0  0  0  0  0  0  0  0
    5.9027   -0.7825    0.0000 C   0  0  0  0  0  0  0  0  0  0  0  0
    6.7107   -0.9611    0.0000 C   0  0  0  0  0  0  0  0  0  0  0  0
    6.9659   -1.7436    0.0000 C   0  0  0  0  0  0  0  0  0  0  0  0
    6.4130   -2.3560    0.0000 C   0  0  0  0  0  0  0  0  0  0  0  0
    5.6050   -2.1859    0.0000 C   0  0  0  0  0  0  0  0  0  0  0  0
    5.3499   -1.3949    0.0000 C   0  0  0  0  0  0  0  0  0  0  0  0
    6.6682   -3.1384    0.0000 C   0  0  0  0  0  0  0  0  0  0  0  0
    7.4507   -3.3936    0.0000 S   0  0  0  0  0  0  0  0  0  0  0  0
    7.4507   -4.2187    0.0000 C   0  0  0  0  0  0  0  0  0  0  0  0
    8.0630   -4.7715    0.0000 C   0  0  0  0  0  0  0  0  0  0  0  0
    7.8929   -5.5710    0.0000 C   0  0  0  0  0  0  0  0  0  0  0  0
    8.5053   -6.1238    0.0000 O   0  0  0  0  0  0  0  0  0  0  0  0
    7.1104   -5.8261    0.0000 C   0  0  0  0  0  0  0  0  0  0  0  0
    6.4981   -5.2818    0.0000 C   0  0  0  0  0  0  0  0  0  0  0  0
    6.6682   -4.4738    0.0000 C   0  0  0  0  0  0  0  0  0  0  0  0
    6.1833   -3.8019    0.0000 C   0  0  0  0  0  0  0  0  0  0  0  0
    5.3583   -3.8019    0.0000 C   0  0  0  0  0  0  0  0  0  0  0  0
    4.9501   -3.0874    0.0000 O   0  0  0  0  0  0  0  0  0  0  0  0
    4.9501   -4.5163    0.0000 C   0  0  0  0  0  0  0  0  0  0  0  0
    5.3583   -5.2308    0.0000 C   0  0  0  0  0  0  0  0  0  0  0  0
    4.9501   -5.9452    0.0000 C   0  0  0  0  0  0  0  0  0  0  0  0
    4.1251   -5.9452    0.0000 C   0  0  0  0  0  0  0  0  0  0  0  0
    3.7083   -6.6597    0.0000 O   0  0  0  0  0  0  0  0  0  0  0  0
    2.8833   -6.6597    0.0000 C   0  0  0  0  0  0  0  0  0  0  0  0
    2.4751   -7.3741    0.0000 C   0  0  0  0  0  0  0  0  0  0  0  0
    1.6501   -7.3741    0.0000 N   0  0  0  0  0  0  0  0  0  0  0  0
    1.2333   -8.0886    0.0000 C   0  0  0  0  0  0  0  0  0  0  0  0
    0.4083   -8.0886    0.0000 C   0  0  0  0  0  0  0  0  0  0  0  0
    0.0000   -7.3741    0.0000 C   0  0  0  0  0  0  0  0  0  0  0  0
    0.4083   -6.6597    0.0000 C   0  0  0  0  0  0  0  0  0  0  0  0
    1.2333   -6.6597    0.0000 C   0  0  0  0  0  0  0  0  0  0  0  0
    3.7083   -5.2308    0.0000 C   0  0  0  0  0  0  0  0  0  0  0  0
    4.1251   -4.5163    0.0000 C   0  0  0  0  0  0  0  0  0  0  0  0
  1  2  1  0
  2  3  2  0
  2  7  1  0
  3  4  1  0
  4  5  2  0
  5  6  1  0
  5  8  1  0
  6  7  2  0
  8  9  1  0
  8 17  2  0
  9 10  1  0
 10 11  2  0
 10 16  1  0
 11 12  1  0
 12 13  1  0
 12 14  2  0
 14 15  1  0
 15 16  2  0
 16 17  1  0
 17 18  1  0
 18 19  2  0
 18 20  1  0
 20 21  2  0
 20 34  1  0
 21 22  1  0
 22 23  2  0
 23 24  1  0
 23 33  1  0
 24 25  1  0
 25 26  1  0
 26 27  1  0
 27 28  1  0
 27 32  1  0
 28 29  1  0
 29 30  1  0
 30 31  1  0
 31 32  1  0
 33 34  2  0
M  END
>  <Formula>  (143) 
C28H27NO4S

>  <FW>  (143) 
473.5833

>  <DSSTox_CID>  (143) 
3550

>  <NR-Aromatase>  (143) 
1

>  <NR-AR>  (143) 
0

>  <SR-ARE>  (143) 
0

>  <SR-ATAD5>  (143) 
0

>  <SR-HSE>  (143) 
1

>  <SR-MMP>  (143) 
1

>  <SR-p53>  (143) 
1

$$$$
NCGC00164566-01
     RDKit          2D

 63 68  0  0  1  0  0  0  0  0999 V2000
    2.1357   -2.4774    0.0000 O   0  0  0  0  0  0  0  0  0  0  0  0
    2.1357   -3.2951    0.0000 C   0  0  0  0  0  0  0  0  0  0  0  0
    2.8557   -3.7100    0.0000 C   0  0  0  0  0  0  0  0  0  0  0  0
    3.5635   -3.2951    0.0000 C   0  0  0  0  0  0  0  0  0  0  0  0
    3.5635   -2.4774    0.0000 O   0  0  0  0  0  0  0  0  0  0  0  0
    4.2836   -3.7100    0.0000 C   0  0  0  0  0  0  0  0  0  0  0  0
    4.9913   -3.2951    0.0000 C   0  0  0  0  0  0  0  0  0  0  0  0
    5.7114   -3.7100    0.0000 C   0  0  0  0  0  0  0  0  0  0  0  0
    6.4192   -3.2951    0.0000 C   0  0  0  0  0  0  0  0  0  0  0  0
    6.4192   -2.4774    0.0000 C   0  0  0  0  0  0  0  0  0  0  0  0
    5.7114   -2.0624    0.0000 C   0  0  0  0  0  0  0  0  0  0  0  0
    5.7114   -1.2448    0.0000 C   0  0  0  0  0  0  0  0  0  0  0  0
    6.4192   -0.8299    0.0000 C   0  0  0  0  0  0  0  0  0  0  0  0
    6.4192    0.0000    0.0000 F   0  0  0  0  0  0  0  0  0  0  0  0
    7.1271   -1.2448    0.0000 C   0  0  0  0  0  0  0  0  0  0  0  0
    7.1271   -2.0624    0.0000 C   0  0  0  0  0  0  0  0  0  0  0  0
    7.1271   -3.7100    0.0000 C   0  0  0  0  0  0  0  0  0  0  0  0
    7.1271   -4.5398    0.0000 C   0  0  0  0  0  0  0  0  0  0  0  0
    7.8471   -4.9425    0.0000 C   0  0  0  0  0  0  0  0  0  0  0  0
    8.5549   -4.5398    0.0000 C   0  0  0  0  0  0  0  0  0  0  0  0
    8.5549   -3.7100    0.0000 C   0  0  0  0  0  0  0  0  0  0  0  0
    7.8471   -3.2951    0.0000 C   0  0  0  0  0  0  0  0  0  0  0  0
    6.4192   -4.9425    0.0000 N   0  0  0  0  0  0  0  0  0  0  0  0
    5.7114   -4.5398    0.0000 C   0  0  0  0  0  0  0  0  0  0  0  0
    4.9913   -4.9425    0.0000 C   0  0  0  0  0  0  0  0  0  0  0  0
    4.5764   -5.6626    0.0000 C   0  0  0  0  0  0  0  0  0  0  0  0
    4.1737   -4.9425    0.0000 C   0  0  0  0  0  0  0  0  0  0  0  0
    1.4157   -3.7100    0.0000 C   0  0  0  0  0  0  0  0  0  0  0  0
    0.7078   -3.2951    0.0000 C   0  0  0  0  0  0  0  0  0  0  0  0
    0.0000   -3.7100    0.0000 O   0  0  0  0  0  0  0  0  0  0  0  0
    0.7078   -2.4774    0.0000 O   0  0  0  0  0  0  0  0  0  0  0  0
    2.4286   -9.0187    0.0000 O   0  0  0  0  0  0  0  0  0  0  0  0
    2.4286   -9.8363    0.0000 C   0  0  0  0  0  0  0  0  0  0  0  0
    3.1364  -10.2634    0.0000 C   0  0  0  0  0  0  0  0  0  0  0  0
    3.8564   -9.8363    0.0000 C   0  0  0  0  0  0  0  0  0  0  0  0
    3.8564   -9.0187    0.0000 O   0  0  0  0  0  0  0  0  0  0  0  0
    4.5642  -10.2634    0.0000 C   0  0  0  0  0  0  0  0  0  0  0  0
    5.2843   -9.8363    0.0000 C   0  0  0  0  0  0  0  0  0  0  0  0
    5.9921  -10.2634    0.0000 C   0  0  0  0  0  0  0  0  0  0  0  0
    6.6999   -9.8363    0.0000 C   0  0  0  0  0  0  0  0  0  0  0  0
    6.6999   -9.0187    0.0000 C   0  0  0  0  0  0  0  0  0  0  0  0
    5.9921   -8.6037    0.0000 C   0  0  0  0  0  0  0  0  0  0  0  0
    5.9921   -7.7861    0.0000 C   0  0  0  0  0  0  0  0  0  0  0  0
    6.6999   -7.3711    0.0000 C   0  0  0  0  0  0  0  0  0  0  0  0
    6.6999   -6.5413    0.0000 F   0  0  0  0  0  0  0  0  0  0  0  0
    7.4199   -7.7861    0.0000 C   0  0  0  0  0  0  0  0  0  0  0  0
    7.4199   -8.6037    0.0000 C   0  0  0  0  0  0  0  0  0  0  0  0
    7.4199  -10.2634    0.0000 C   0  0  0  0  0  0  0  0  0  0  0  0
    7.4199  -11.0811    0.0000 C   0  0  0  0  0  0  0  0  0  0  0  0
    8.1278  -11.4838    0.0000 C   0  0  0  0  0  0  0  0  0  0  0  0
    8.8478  -11.0811    0.0000 C   0  0  0  0  0  0  0  0  0  0  0  0
    8.8478  -10.2634    0.0000 C   0  0  0  0  0  0  0  0  0  0  0  0
    8.1278   -9.8363    0.0000 C   0  0  0  0  0  0  0  0  0  0  0  0
    6.6999  -11.4838    0.0000 N   0  0  0  0  0  0  0  0  0  0  0  0
    5.9921  -11.0811    0.0000 C   0  0  0  0  0  0  0  0  0  0  0  0
    5.2843  -11.4838    0.0000 C   0  0  0  0  0  0  0  0  0  0  0  0
    4.8693  -12.2038    0.0000 C   0  0  0  0  0  0  0  0  0  0  0  0
    4.4544  -11.4838    0.0000 C   0  0  0  0  0  0  0  0  0  0  0  0
    1.7085  -10.2634    0.0000 C   0  0  0  0  0  0  0  0  0  0  0  0
    0.9885   -9.8363    0.0000 C   0  0  0  0  0  0  0  0  0  0  0  0
    0.2929  -10.2634    0.0000 O   0  0  0  0  0  0  0  0  0  0  0  0
    0.9885   -9.0187    0.0000 O   0  0  0  0  0  0  0  0  0  0  0  0
    2.3676   -6.4192    0.0000 Ca  0  0  0  0  0 15  0  0  0  0  0  0
  2  1  1  6
  2  3  1  0
  2 28  1  0
  3  4  1  0
  5  4  1  0
  4  6  1  0
  6  7  2  0
  7  8  1  0
  8  9  2  0
  8 24  1  0
  9 10  1  0
  9 17  1  0
 10 11  2  0
 10 16  1  0
 11 12  1  0
 12 13  2  0
 13 14  1  0
 13 15  1  0
 15 16  2  0
 17 18  2  0
 17 22  1  0
 18 19  1  0
 18 23  1  0
 19 20  2  0
 20 21  1  0
 21 22  2  0
 23 24  2  0
 24 25  1  0
 25 26  1  0
 25 27  1  0
 26 27  1  0
 28 29  1  0
 29 30  1  0
 29 31  2  0
 33 32  1  6
 33 34  1  0
 33 59  1  0
 34 35  1  0
 35 36  1  6
 35 37  1  0
 37 38  2  0
 38 39  1  0
 39 40  2  0
 39 55  1  0
 40 41  1  0
 40 48  1  0
 41 42  2  0
 41 47  1  0
 42 43  1  0
 43 44  2  0
 44 45  1  0
 44 46  1  0
 46 47  2  0
 48 49  2  0
 48 53  1  0
 49 50  1  0
 49 54  1  0
 50 51  2  0
 51 52  1  0
 52 53  2  0
 54 55  2  0
 55 56  1  0
 56 57  1  0
 56 58  1  0
 57 58  1  0
 59 60  1  0
 60 61  1  0
 60 62  2  0
M  CHG  3  30  -1  61  -1  63   2
M  END
>  <Formula>  (144) 
C50H46CaF2N2O8

>  <FW>  (144) 
880.9836 (420.4534+420.4534+40.0769)

>  <DSSTox_CID>  (144) 
26448

>  <NR-Aromatase>  (144) 
1

>  <NR-AR>  (144) 
0

>  <NR-ER>  (144) 
0

>  <NR-PPAR-gamma>  (144) 
0

>  <NR-AhR>  (144) 
0

>  <SR-ATAD5>  (144) 
0

>  <SR-p53>  (144) 
0

$$$$
NCGC00255153-01
     RDKit          2D

 35 38  0  0  0  0  0  0  0  0999 V2000
    4.9396   -1.4871    0.0000 C   0  0  0  0  0  0  0  0  0  0  0  0
    5.4091   -0.8088    0.0000 C   0  0  0  0  0  0  0  0  0  0  0  0
    4.1482   -1.2262    0.0000 C   0  0  0  0  0  0  0  0  0  0  0  0
    5.3396   -2.1915    0.0000 C   0  0  0  0  0  0  0  0  0  0  0  0
    6.2353   -0.8088    0.0000 C   0  0  0  0  0  0  0  0  0  0  0  0
    4.9396   -0.1565    0.0000 S   0  0  0  0  0  0  0  0  0  0  0  0
    4.1482   -0.4000    0.0000 C   0  0  0  0  0  0  0  0  0  0  0  0
    3.4351   -1.6349    0.0000 C   0  0  0  0  0  0  0  0  0  0  0  0
    4.9396   -2.9046    0.0000 C   0  0  0  0  0  0  0  0  0  0  0  0
    6.1657   -2.1915    0.0000 O   0  0  0  0  0  0  0  0  0  0  0  0
    6.6353   -1.5305    0.0000 C   0  0  0  0  0  0  0  0  0  0  0  0
    6.6353   -0.1130    0.0000 C   0  0  0  0  0  0  0  0  0  0  0  0
    3.4351    0.0000    0.0000 C   0  0  0  0  0  0  0  0  0  0  0  0
    2.7306   -1.2262    0.0000 C   0  0  0  0  0  0  0  0  0  0  0  0
    4.1134   -2.9046    0.0000 C   0  0  0  0  0  0  0  0  0  0  0  0
    5.3396   -3.6264    0.0000 C   0  0  0  0  0  0  0  0  0  0  0  0
    7.4615   -1.5305    0.0000 C   0  0  0  0  0  0  0  0  0  0  0  0
    7.4615   -0.1130    0.0000 C   0  0  0  0  0  0  0  0  0  0  0  0
    2.7306   -0.4000    0.0000 C   0  0  0  0  0  0  0  0  0  0  0  0
    3.6872   -3.6264    0.0000 C   0  0  0  0  0  0  0  0  0  0  0  0
    4.9396   -4.3308    0.0000 C   0  0  0  0  0  0  0  0  0  0  0  0
    7.8702   -0.8088    0.0000 C   0  0  0  0  0  0  0  0  0  0  0  0
    2.0089    0.0000    0.0000 O   0  0  0  0  0  0  0  0  0  0  0  0
    4.1134   -4.3308    0.0000 C   0  0  0  0  0  0  0  0  0  0  0  0
    8.6963   -0.8088    0.0000 O   0  0  0  0  0  0  0  0  0  0  0  0
    3.6872   -5.0352    0.0000 O   0  0  0  0  0  0  0  0  0  0  0  0
    2.8698   -5.0352    0.0000 C   0  0  0  0  0  0  0  0  0  0  0  0
    2.4610   -4.3308    0.0000 C   0  0  0  0  0  0  0  0  0  0  0  0
    1.6436   -4.3308    0.0000 N   0  0  0  0  0  0  0  0  0  0  0  0
    1.2349   -5.0352    0.0000 C   0  0  0  0  0  0  0  0  0  0  0  0
    1.2349   -3.6264    0.0000 C   0  0  0  0  0  0  0  0  0  0  0  0
    0.4087   -5.0352    0.0000 C   0  0  0  0  0  0  0  0  0  0  0  0
    0.4087   -3.6264    0.0000 C   0  0  0  0  0  0  0  0  0  0  0  0
    0.0000   -4.3308    0.0000 C   0  0  0  0  0  0  0  0  0  0  0  0
    1.2349   -1.6349    0.0000 Cl  0  0  0  0  0  0  0  0  0  0  0  0
  1  2  2  0
  1  3  1  0
  1  4  1  0
  2  5  1  0
  2  6  1  0
  3  7  2  0
  3  8  1  0
  4  9  1  0
  4 10  2  0
  5 11  2  0
  5 12  1  0
  6  7  1  0
  7 13  1  0
  8 14  2  0
  9 15  2  0
  9 16  1  0
 11 17  1  0
 12 18  2  0
 13 19  2  0
 14 19  1  0
 15 20  1  0
 16 21  2  0
 17 22  2  0
 18 22  1  0
 19 23  1  0
 20 24  2  0
 21 24  1  0
 22 25  1  0
 24 26  1  0
 26 27  1  0
 27 28  1  0
 28 29  1  0
 29 30  1  0
 29 31  1  0
 30 32  1  0
 31 33  1  0
 32 34  1  0
 33 34  1  0
M  END
>  <Formula>  (145) 
C28H28ClNO4S

>  <FW>  (145) 
510.0442 (473.5833+36.4609)

>  <DSSTox_CID>  (145) 
14181

>  <NR-Aromatase>  (145) 
1

>  <NR-AR>  (145) 
0

>  <NR-AhR>  (145) 
0

>  <SR-ARE>  (145) 
0

>  <SR-HSE>  (145) 
1

>  <SR-MMP>  (145) 
1

>  <SR-p53>  (145) 
1

$$$$
NCGC00159551-01
     RDKit          2D

 31 35  0  0  1  0  0  0  0  0999 V2000
    2.0730   -2.6653    0.0000 C   0  0  0  0  0  0  0  0  0  0  0  0
    1.4327   -2.1450    0.0000 C   0  0  0  0  0  0  0  0  0  0  0  0
    1.8729   -3.4577    0.0000 C   0  0  0  0  0  0  0  0  0  0  0  0
    2.8734   -2.4732    0.0000 N   0  0  0  0  0  0  0  0  0  0  0  0
    1.4327   -1.3207    0.0000 C   0  0  0  0  0  0  0  0  0  0  0  0
    0.7124   -2.5532    0.0000 C   0  0  0  0  0  0  0  0  0  0  0  0
    2.4892   -4.0259    0.0000 C   0  0  0  0  0  0  0  0  0  0  0  0
    1.0885   -3.7058    0.0000 C   0  0  0  0  0  0  0  0  0  0  0  0
    3.2336   -1.7288    0.0000 C   0  0  0  0  0  0  0  0  0  0  0  0
    2.0730   -0.8084    0.0000 N   0  0  0  0  0  0  0  0  0  0  0  0
    0.7124   -0.9044    0.0000 C   0  0  0  0  0  0  0  0  0  0  0  0
    0.0000   -2.1450    0.0000 C   0  0  0  0  0  0  0  0  0  0  0  0
    2.3131   -4.8183    0.0000 C   0  0  0  0  0  0  0  0  0  0  0  0
    0.9204   -4.5141    0.0000 C   0  0  0  0  0  0  0  0  0  0  0  0
    2.8734   -0.9844    0.0000 C   0  0  0  0  0  0  0  0  0  0  0  0
    4.0580   -1.7288    0.0000 N   0  0  0  0  0  0  0  0  0  0  0  0
    1.8729    0.0000    0.0000 C   0  0  0  0  0  0  0  0  0  0  0  0
    0.0000   -1.3207    0.0000 C   0  0  0  0  0  0  0  0  0  0  0  0
    1.5207   -5.0664    0.0000 C   0  0  0  0  0  0  0  0  0  0  0  0
    3.3936   -0.3281    0.0000 O   0  0  0  0  0  0  0  0  0  0  0  0
    4.4821   -2.4412    0.0000 C   0  0  0  0  0  0  0  0  0  0  0  0
    5.3065   -2.4412    0.0000 C   0  0  0  0  0  0  0  0  0  0  0  0
    4.0580   -3.1695    0.0000 O   0  0  0  0  0  0  0  0  0  0  0  0
    5.7787   -1.7768    0.0000 C   0  0  0  0  0  0  0  0  0  0  0  0
    5.7787   -3.1215    0.0000 N   0  0  0  0  0  0  0  0  0  0  0  0
    6.5711   -2.0410    0.0000 C   0  0  0  0  0  0  0  0  0  0  0  0
    6.5711   -2.8654    0.0000 C   0  0  0  0  0  0  0  0  0  0  0  0
    7.2755   -1.6088    0.0000 C   0  0  0  0  0  0  0  0  0  0  0  0
    7.2755   -3.2656    0.0000 C   0  0  0  0  0  0  0  0  0  0  0  0
    8.0038   -2.0410    0.0000 C   0  0  0  0  0  0  0  0  0  0  0  0
    8.0038   -2.8654    0.0000 C   0  0  0  0  0  0  0  0  0  0  0  0
  1  2  1  0
  1  3  1  0
  1  4  2  0
  2  5  2  0
  2  6  1  0
  3  7  2  0
  3  8  1  0
  4  9  1  0
  5 10  1  0
  5 11  1  0
  6 12  2  0
  7 13  1  0
  8 14  2  0
  9 15  1  0
  9 16  1  1
 10 17  1  0
 10 15  1  0
 11 18  2  0
 12 18  1  0
 13 19  2  0
 14 19  1  0
 15 20  2  0
 16 21  1  0
 21 22  1  0
 21 23  2  0
 22 24  2  0
 22 25  1  0
 24 26  1  0
 25 27  1  0
 26 28  2  0
 26 27  1  0
 27 29  2  0
 28 30  1  0
 29 31  1  0
 30 31  2  0
M  END
>  <Formula>  (146) 
C25H20N4O2

>  <FW>  (146) 
408.4519

>  <DSSTox_CID>  (146) 
26092

>  <NR-Aromatase>  (146) 
1

>  <NR-AR>  (146) 
0

>  <NR-AR-LBD>  (146) 
0

>  <NR-ER-LBD>  (146) 
0

>  <NR-AhR>  (146) 
1

>  <SR-ATAD5>  (146) 
1

>  <SR-MMP>  (146) 
1

$$$$
NCGC00258711-01
     RDKit          2D

 39 42  0  0  1  0  0  0  0  0999 V2000
    5.0456   -5.0061    0.0000 C   0  0  0  0  0  0  0  0  0  0  0  0
    5.0456   -4.1678    0.0000 C   0  0  0  0  0  0  0  0  0  0  0  0
    5.7653   -3.7644    0.0000 C   0  0  0  0  0  0  0  0  0  0  0  0
    5.7653   -5.4094    0.0000 C   0  0  0  0  0  0  0  0  0  0  0  0
    3.6458   -4.1678    0.0000 C   0  0  0  0  0  0  0  0  0  0  0  0
    3.6458   -5.0061    0.0000 C   0  0  0  0  0  0  0  0  0  0  0  0
    6.4771   -4.1678    0.0000 C   0  0  0  0  0  0  0  0  0  0  0  0
    4.3418   -5.4094    0.0000 C   0  0  0  0  0  0  0  0  0  0  0  0
    4.3418   -3.7644    0.0000 C   0  0  0  0  0  0  0  0  0  0  0  0
    6.4771   -5.0061    0.0000 C   0  0  0  0  0  0  0  0  0  0  0  0
    2.2144   -5.0061    0.0000 C   0  0  0  0  0  0  0  0  0  0  0  0
    2.9262   -3.7644    0.0000 C   0  0  0  0  0  0  0  0  0  0  0  0
    2.9262   -5.4094    0.0000 C   0  0  0  0  0  0  0  0  0  0  0  0
    2.2144   -4.1678    0.0000 C   0  0  0  0  0  0  0  0  0  0  0  0
    2.9262   -2.5307    0.0000 O   0  0  0  0  0  0  0  0  0  0  0  0
    1.4789   -5.4252    0.0000 C   0  0  0  0  0  0  0  0  0  0  0  0
    5.7653   -6.2398    0.0000 O   0  0  0  0  0  0  0  0  0  0  0  0
    5.7653   -2.9420    0.0000 O   0  0  0  0  0  0  0  0  0  0  0  0
    7.1967   -3.7644    0.0000 C   0  0  0  0  0  0  0  0  0  0  0  0
    0.7592   -5.0061    0.0000 O   0  0  0  0  0  0  0  0  0  0  0  0
    4.3418   -6.2398    0.0000 O   0  0  0  0  0  0  0  0  0  0  0  0
    4.3418   -2.9420    0.0000 O   0  0  0  0  0  0  0  0  0  0  0  0
    1.3523   -4.4209    0.0000 O   0  0  0  0  0  0  0  0  0  0  0  0
    7.1967   -5.4094    0.0000 C   0  0  0  0  0  0  0  0  0  0  0  0
    7.1967   -2.9420    0.0000 O   0  0  0  0  0  0  0  0  0  0  0  0
    7.8768   -5.0061    0.0000 C   0  0  0  0  0  0  0  0  0  0  0  0
    7.8768   -4.1678    0.0000 C   0  0  0  0  0  0  0  0  0  0  0  0
    1.4789   -6.2636    0.0000 C   0  0  0  0  0  0  0  0  0  0  0  0
    7.9085   -2.5307    0.0000 C   0  0  0  0  0  0  0  0  0  0  0  0
    2.1986   -2.0958    0.0000 C   0  0  0  0  0  0  0  0  0  0  0  0
    1.4631   -2.5307    0.0000 C   0  0  0  0  0  0  0  0  0  0  0  0
    2.1986   -1.2575    0.0000 O   0  0  0  0  0  0  0  0  0  0  0  0
    0.7434   -2.0958    0.0000 C   0  0  0  0  0  0  0  0  0  0  0  0
    1.4631   -0.8383    0.0000 C   0  0  0  0  0  0  0  0  0  0  0  0
    0.7434   -1.2575    0.0000 C   0  0  0  0  0  0  0  0  0  0  0  0
    0.0000   -2.5307    0.0000 N   0  0  0  0  0  0  0  0  0  0  0  0
    0.0000   -0.8383    0.0000 O   0  0  0  0  0  0  0  0  0  0  0  0
    1.4631    0.0000    0.0000 C   0  0  0  0  0  0  0  0  0  0  0  0
    3.2030   -6.2636    0.0000 Cl  0  0  0  0  0  0  0  0  0  0  0  0
  1  2  2  0
  1  4  1  0
  1  8  1  0
  2  3  1  0
  2  9  1  0
  3 18  2  0
  3  7  1  0
  4 10  1  0
  4 17  2  0
  5  6  1  0
  5 12  1  0
  5  9  2  0
  6  8  2  0
  6 13  1  0
  7 10  2  0
  7 19  1  0
  8 21  1  0
  9 22  1  0
 10 24  1  0
 11 13  1  0
 11 14  1  0
 11 16  1  0
 11 23  1  6
 12 15  1  6
 12 14  1  0
 30 15  1  1
 16 20  2  0
 16 28  1  0
 19 25  1  0
 19 27  2  0
 24 26  2  0
 25 29  1  0
 26 27  1  0
 30 31  1  0
 30 32  1  0
 31 33  1  0
 32 34  1  0
 33 35  1  0
 33 36  1  6
 34 35  1  0
 34 38  1  6
 35 37  1  6
M  END
>  <Formula>  (147) 
C27H30ClNO10

>  <FW>  (147) 
563.9808 (527.5199+36.4609)

>  <DSSTox_CID>  (147) 
13382

>  <NR-Aromatase>  (147) 
1

>  <NR-AR>  (147) 
0

>  <NR-AR-LBD>  (147) 
1

>  <NR-ER-LBD>  (147) 
1

>  <SR-ATAD5>  (147) 
1

>  <SR-p53>  (147) 
1

$$$$
NCGC00255075-01
     RDKit          2D

 29 30  0  0  0  0  0  0  0  0999 V2000
    2.8538   -2.3591    0.0000 N   0  0  0  0  0  0  0  0  0  0  0  0
    2.1385   -2.7777    0.0000 C   0  0  0  0  0  0  0  0  0  0  0  0
    2.8538   -1.5449    0.0000 C   0  0  0  0  0  0  0  0  0  0  0  0
    2.1385   -1.1339    0.0000 C   0  0  0  0  0  0  0  0  0  0  0  0
    1.4231   -2.3591    0.0000 C   0  0  0  0  0  0  0  0  0  0  0  0
    1.4231   -1.5449    0.0000 C   0  0  0  0  0  0  0  0  0  0  0  0
    3.5539   -1.1339    0.0000 N   0  0  0  0  0  0  0  0  0  0  0  0
    2.1385   -0.3120    0.0000 Cl  0  0  0  0  0  0  0  0  0  0  0  0
    4.7564   -1.6438    0.0000 C   0  0  0  0  0  0  0  0  0  0  0  0
    5.4717   -1.2328    0.0000 C   0  0  0  0  0  0  0  0  0  0  0  0
    4.7564   -2.4581    0.0000 C   0  0  0  0  0  0  0  0  0  0  0  0
    6.1871   -1.6438    0.0000 C   0  0  0  0  0  0  0  0  0  0  0  0
    5.4717   -2.8767    0.0000 C   0  0  0  0  0  0  0  0  0  0  0  0
    6.1871   -2.4581    0.0000 C   0  0  0  0  0  0  0  0  0  0  0  0
    6.8948   -1.2328    0.0000 Cl  0  0  0  0  0  0  0  0  0  0  0  0
    5.4717   -0.4110    0.0000 N   0  0  0  0  0  0  0  0  0  0  0  0
    4.7564    0.0000    0.0000 O   0  0  0  0  0  0  0  0  0  0  0  0
    6.1871    0.0000    0.0000 O   0  0  0  0  0  0  0  0  0  0  0  0
    4.0486   -2.8767    0.0000 N   0  0  0  0  0  0  0  0  0  0  0  0
    4.0486   -3.6985    0.0000 O   0  0  0  0  0  0  0  0  0  0  0  0
    3.3941   -2.4505    0.0000 O   0  0  0  0  0  0  0  0  0  0  0  0
    6.8948   -2.8767    0.0000 C   0  0  0  0  0  0  0  0  0  0  0  0
    6.4839   -3.5920    0.0000 F   0  0  0  0  0  0  0  0  0  0  0  0
    7.3058   -2.1613    0.0000 F   0  0  0  0  0  0  0  0  0  0  0  0
    7.6102   -3.2800    0.0000 F   0  0  0  0  0  0  0  0  0  0  0  0
    0.7154   -2.7777    0.0000 C   0  0  0  0  0  0  0  0  0  0  0  0
    0.2968   -2.0624    0.0000 F   0  0  0  0  0  0  0  0  0  0  0  0
    1.1187   -3.4931    0.0000 F   0  0  0  0  0  0  0  0  0  0  0  0
    0.0000   -3.1811    0.0000 F   0  0  0  0  0  0  0  0  0  0  0  0
  1  2  2  0
  1  3  1  0
  2  5  1  0
  3  4  2  0
  3  7  1  0
  4  6  1  0
  4  8  1  0
  5  6  2  0
  5 26  1  0
  7  9  1  0
  9 10  2  0
  9 11  1  0
 10 12  1  0
 10 16  1  0
 11 13  2  0
 11 19  1  0
 12 14  2  0
 12 15  1  0
 13 14  1  0
 14 22  1  0
 16 17  1  0
 16 18  2  0
 19 20  1  0
 19 21  2  0
 22 23  1  0
 22 24  1  0
 22 25  1  0
 26 27  1  0
 26 28  1  0
 26 29  1  0
M  CHG  4  16   1  17  -1  19   1  20  -1
M  END
>  <Formula>  (148) 
C13H4Cl2F6N4O4

>  <FW>  (148) 
465.0917

>  <DSSTox_CID>  (148) 
12551

>  <NR-Aromatase>  (148) 
1

>  <NR-AR>  (148) 
0

>  <NR-ER-LBD>  (148) 
1

>  <NR-PPAR-gamma>  (148) 
1

>  <NR-AhR>  (148) 
1

>  <SR-ATAD5>  (148) 
0

>  <SR-HSE>  (148) 
1

>  <SR-p53>  (148) 
1

$$$$
NCGC00159344-02
     RDKit          2D

 37 41  0  0  1  0  0  0  0  0999 V2000
    2.8520   -1.2375    0.0000 C   0  0  0  0  0  0  0  0  0  0  0  0
    2.8520   -2.0697    0.0000 C   0  0  0  0  0  0  0  0  0  0  0  0
    2.1336   -2.4750    0.0000 C   0  0  0  0  0  0  0  0  0  0  0  0
    2.1336   -0.8250    0.0000 C   0  0  0  0  0  0  0  0  0  0  0  0
    4.2602   -2.0697    0.0000 C   0  0  0  0  0  0  0  0  0  0  0  0
    4.2602   -1.2375    0.0000 C   0  0  0  0  0  0  0  0  0  0  0  0
    1.4224   -2.0697    0.0000 C   0  0  0  0  0  0  0  0  0  0  0  0
    3.5561   -0.8250    0.0000 C   0  0  0  0  0  0  0  0  0  0  0  0
    3.5561   -2.4750    0.0000 C   0  0  0  0  0  0  0  0  0  0  0  0
    1.4224   -1.2375    0.0000 C   0  0  0  0  0  0  0  0  0  0  0  0
    5.6897   -1.2375    0.0000 C   0  0  0  0  0  0  0  0  0  0  0  0
    4.9643   -2.4750    0.0000 C   0  0  0  0  0  0  0  0  0  0  0  0
    4.9643   -0.8250    0.0000 C   0  0  0  0  0  0  0  0  0  0  0  0
    5.6897   -2.0697    0.0000 C   0  0  0  0  0  0  0  0  0  0  0  0
    4.9643   -3.7766    0.0000 O   0  0  0  0  0  0  0  0  0  0  0  0
    6.4081   -0.8250    0.0000 C   0  0  0  0  0  0  0  0  0  0  0  0
    2.1336    0.0000    0.0000 O   0  0  0  0  0  0  0  0  0  0  0  0
    2.1336   -3.2929    0.0000 O   0  0  0  0  0  0  0  0  0  0  0  0
    0.7183   -2.4750    0.0000 C   0  0  0  0  0  0  0  0  0  0  0  0
    7.1121   -1.2375    0.0000 O   0  0  0  0  0  0  0  0  0  0  0  0
    3.5561    0.0000    0.0000 O   0  0  0  0  0  0  0  0  0  0  0  0
    3.5561   -3.2929    0.0000 O   0  0  0  0  0  0  0  0  0  0  0  0
    6.5077   -1.7780    0.0000 O   0  0  0  0  0  0  0  0  0  0  0  0
    0.7183   -0.8250    0.0000 C   0  0  0  0  0  0  0  0  0  0  0  0
    0.7183   -3.2929    0.0000 O   0  0  0  0  0  0  0  0  0  0  0  0
    0.0000   -1.2375    0.0000 C   0  0  0  0  0  0  0  0  0  0  0  0
    0.0000   -2.0697    0.0000 C   0  0  0  0  0  0  0  0  0  0  0  0
    6.4081    0.0000    0.0000 C   0  0  0  0  0  0  0  0  0  0  0  0
    4.2602   -4.6016    0.0000 C   0  0  0  0  0  0  0  0  0  0  0  0
    4.2602   -5.4266    0.0000 C   0  0  0  0  0  0  0  0  0  0  0  0
    3.5490   -4.1820    0.0000 O   0  0  0  0  0  0  0  0  0  0  0  0
    3.5490   -5.8533    0.0000 C   0  0  0  0  0  0  0  0  0  0  0  0
    2.8235   -4.6016    0.0000 C   0  0  0  0  0  0  0  0  0  0  0  0
    2.8235   -5.4266    0.0000 C   0  0  0  0  0  0  0  0  0  0  0  0
    3.5490   -6.6783    0.0000 N   0  0  0  0  0  0  0  0  0  0  0  0
    2.1052   -5.8533    0.0000 O   0  0  0  0  0  0  0  0  0  0  0  0
    2.1052   -4.1820    0.0000 C   0  0  0  0  0  0  0  0  0  0  0  0
  1  2  2  0
  1  4  1  0
  1  8  1  0
  2  3  1  0
  2  9  1  0
  3 18  2  0
  3  7  1  0
  4 10  1  0
  4 17  2  0
  5  6  1  0
  5 12  1  0
  5  9  2  0
  6  8  2  0
  6 13  1  0
  7 10  2  0
  7 19  1  0
  8 21  1  0
  9 22  1  0
 10 24  1  0
 11 13  1  0
 11 14  1  0
 11 16  1  0
 11 23  1  6
 12 15  1  6
 12 14  1  0
 29 15  1  1
 16 20  2  0
 16 28  1  0
 19 25  1  0
 19 27  2  0
 24 26  2  0
 26 27  1  0
 29 30  1  0
 29 31  1  0
 30 32  1  0
 31 33  1  0
 32 34  1  0
 32 35  1  6
 33 34  1  0
 33 37  1  6
 34 36  1  6
M  END
>  <Formula>  (149) 
C26H27NO10

>  <FW>  (149) 
513.4933

>  <DSSTox_CID>  (149) 
2742

>  <NR-Aromatase>  (149) 
1

>  <NR-AR>  (149) 
0

>  <NR-AR-LBD>  (149) 
1

>  <NR-ER-LBD>  (149) 
1

>  <SR-ATAD5>  (149) 
1

>  <SR-MMP>  (149) 
1

>  <SR-p53>  (149) 
1

$$$$
NCGC00160675-01
     RDKit          2D

 37 41  0  0  1  0  0  0  0  0999 V2000
    2.8520   -1.2375    0.0000 C   0  0  0  0  0  0  0  0  0  0  0  0
    2.8520   -2.0697    0.0000 C   0  0  0  0  0  0  0  0  0  0  0  0
    2.1336   -2.4750    0.0000 C   0  0  0  0  0  0  0  0  0  0  0  0
    2.1336   -0.8250    0.0000 C   0  0  0  0  0  0  0  0  0  0  0  0
    4.2602   -2.0697    0.0000 C   0  0  0  0  0  0  0  0  0  0  0  0
    4.2602   -1.2375    0.0000 C   0  0  0  0  0  0  0  0  0  0  0  0
    1.4224   -2.0697    0.0000 C   0  0  0  0  0  0  0  0  0  0  0  0
    3.5561   -0.8250    0.0000 C   0  0  0  0  0  0  0  0  0  0  0  0
    3.5561   -2.4750    0.0000 C   0  0  0  0  0  0  0  0  0  0  0  0
    1.4224   -1.2375    0.0000 C   0  0  0  0  0  0  0  0  0  0  0  0
    5.6897   -1.2375    0.0000 C   0  0  0  0  0  0  0  0  0  0  0  0
    4.9643   -2.4750    0.0000 C   0  0  0  0  0  0  0  0  0  0  0  0
    4.9643   -0.8250    0.0000 C   0  0  0  0  0  0  0  0  0  0  0  0
    5.6897   -2.0697    0.0000 C   0  0  0  0  0  0  0  0  0  0  0  0
    4.9643   -3.7766    0.0000 O   0  0  0  0  0  0  0  0  0  0  0  0
    6.4081   -0.8250    0.0000 C   0  0  0  0  0  0  0  0  0  0  0  0
    2.1336    0.0000    0.0000 O   0  0  0  0  0  0  0  0  0  0  0  0
    2.1336   -3.2929    0.0000 O   0  0  0  0  0  0  0  0  0  0  0  0
    0.7183   -2.4750    0.0000 C   0  0  0  0  0  0  0  0  0  0  0  0
    7.1121   -1.2375    0.0000 O   0  0  0  0  0  0  0  0  0  0  0  0
    3.5561    0.0000    0.0000 O   0  0  0  0  0  0  0  0  0  0  0  0
    3.5561   -3.2929    0.0000 O   0  0  0  0  0  0  0  0  0  0  0  0
    6.5077   -1.7780    0.0000 O   0  0  0  0  0  0  0  0  0  0  0  0
    0.7183   -0.8250    0.0000 C   0  0  0  0  0  0  0  0  0  0  0  0
    0.7183   -3.2929    0.0000 O   0  0  0  0  0  0  0  0  0  0  0  0
    0.0000   -1.2375    0.0000 C   0  0  0  0  0  0  0  0  0  0  0  0
    0.0000   -2.0697    0.0000 C   0  0  0  0  0  0  0  0  0  0  0  0
    6.4081    0.0000    0.0000 C   0  0  0  0  0  0  0  0  0  0  0  0
    4.2602   -4.6016    0.0000 C   0  0  0  0  0  0  0  0  0  0  0  0
    4.2602   -5.4266    0.0000 C   0  0  0  0  0  0  0  0  0  0  0  0
    3.5490   -4.1820    0.0000 O   0  0  0  0  0  0  0  0  0  0  0  0
    3.5490   -5.8533    0.0000 C   0  0  0  0  0  0  0  0  0  0  0  0
    2.8235   -4.6016    0.0000 C   0  0  0  0  0  0  0  0  0  0  0  0
    2.8235   -5.4266    0.0000 C   0  0  0  0  0  0  0  0  0  0  0  0
    3.5490   -6.6783    0.0000 N   0  0  0  0  0  0  0  0  0  0  0  0
    2.1052   -5.8533    0.0000 O   0  0  0  0  0  0  0  0  0  0  0  0
    2.1052   -4.1820    0.0000 C   0  0  0  0  0  0  0  0  0  0  0  0
  1  2  2  0
  1  4  1  0
  1  8  1  0
  2  3  1  0
  2  9  1  0
  3 18  2  0
  3  7  1  0
  4 10  1  0
  4 17  2  0
  5  6  1  0
  5 12  1  0
  5  9  2  0
  6  8  2  0
  6 13  1  0
  7 10  2  0
  7 19  1  0
  8 21  1  0
  9 22  1  0
 10 24  1  0
 11 13  1  0
 11 14  1  0
 11 16  1  0
 11 23  1  6
 12 15  1  6
 12 14  1  0
 29 15  1  1
 16 20  2  0
 16 28  1  0
 19 25  1  0
 19 27  2  0
 24 26  2  0
 26 27  1  0
 29 30  1  0
 29 31  1  0
 30 32  1  0
 31 33  1  0
 32 34  1  0
 32 35  1  6
 33 34  1  0
 33 37  1  6
 34 36  1  6
M  END
>  <Formula>  (150) 
C26H27NO10

>  <FW>  (150) 
513.4933

>  <DSSTox_CID>  (150) 
2742

>  <NR-Aromatase>  (150) 
1

>  <NR-AR>  (150) 
0

>  <NR-AR-LBD>  (150) 
1

>  <NR-ER-LBD>  (150) 
1

>  <SR-ATAD5>  (150) 
1

>  <SR-MMP>  (150) 
1

>  <SR-p53>  (150) 
1

$$$$
NCGC00093976-03
     RDKit          2D

 37 40  0  0  1  0  0  0  0  0999 V2000
    7.8574   -1.4301    0.0000 C   0  0  0  0  0  0  0  0  0  0  0  0
    7.8574   -2.2551    0.0000 C   0  0  0  0  0  0  0  0  0  0  0  0
    7.1503   -1.0136    0.0000 C   0  0  0  0  0  0  0  0  0  0  0  0
    7.1503   -2.6637    0.0000 C   0  0  0  0  0  0  0  0  0  0  0  0
    6.4274   -1.4301    0.0000 C   0  0  0  0  0  0  0  0  0  0  0  0
    6.4274   -2.2551    0.0000 C   0  0  0  0  0  0  0  0  0  0  0  0
    5.7202   -1.0136    0.0000 C   0  0  0  0  0  0  0  0  0  0  0  0
    5.0052   -1.4301    0.0000 C   0  0  0  0  0  0  0  0  0  0  0  0
    5.7202   -2.6637    0.0000 C   0  0  0  0  0  0  0  0  0  0  0  0
    5.0052   -2.2551    0.0000 C   0  0  0  0  0  0  0  0  0  0  0  0
    4.2902   -1.0136    0.0000 C   0  0  0  0  0  0  0  0  0  0  0  0
    3.5673   -1.4301    0.0000 C   0  0  0  0  0  0  0  0  0  0  0  0
    4.2902   -2.6637    0.0000 C   0  0  0  0  0  0  0  0  0  0  0  0
    3.5673   -2.2551    0.0000 C   0  0  0  0  0  0  0  0  0  0  0  0
    5.7202   -0.1886    0.0000 O   0  0  0  0  0  0  0  0  0  0  0  0
    5.7202   -3.4887    0.0000 O   0  0  0  0  0  0  0  0  0  0  0  0
    4.2902   -0.1886    0.0000 O   0  0  0  0  0  0  0  0  0  0  0  0
    4.2902   -3.4887    0.0000 O   0  0  0  0  0  0  0  0  0  0  0  0
    2.8522   -1.0136    0.0000 C   0  0  0  0  0  0  0  0  0  0  0  0
    2.1372   -1.4301    0.0000 C   0  0  0  0  0  0  0  0  0  0  0  0
    2.8522   -2.6637    0.0000 C   0  0  0  0  0  0  0  0  0  0  0  0
    2.1372   -2.2551    0.0000 C   0  0  0  0  0  0  0  0  0  0  0  0
    2.8522   -3.4887    0.0000 O   0  0  0  0  0  0  0  0  0  0  0  0
    1.7286   -0.6993    0.0000 C   0  0  0  0  0  0  0  0  0  0  0  0
    0.9036   -0.6993    0.0000 O   0  0  0  0  0  0  0  0  0  0  0  0
    2.1372    0.0000    0.0000 C   0  0  0  0  0  0  0  0  0  0  0  0
    1.3122   -1.4301    0.0000 O   0  0  0  0  0  0  0  0  0  0  0  0
    2.1372   -3.9051    0.0000 C   0  0  0  0  0  0  0  0  0  0  0  0
    2.1372   -4.7302    0.0000 C   0  0  0  0  0  0  0  0  0  0  0  0
    1.4301   -3.4887    0.0000 O   0  0  0  0  0  0  0  0  0  0  0  0
    1.4301   -5.1387    0.0000 C   0  0  0  0  0  0  0  0  0  0  0  0
    0.7072   -3.9051    0.0000 C   0  0  0  0  0  0  0  0  0  0  0  0
    0.7072   -4.7302    0.0000 C   0  0  0  0  0  0  0  0  0  0  0  0
    0.0000   -3.4887    0.0000 C   0  0  0  0  0  0  0  0  0  0  0  0
    0.0000   -5.1387    0.0000 O   0  0  0  0  0  0  0  0  0  0  0  0
    1.4301   -5.9638    0.0000 N   0  0  0  0  0  0  0  0  0  0  0  0
    3.6615   -4.4395    0.0000 Cl  0  0  0  0  0  0  0  0  0  0  0  0
  1  2  2  0
  1  3  1  0
  2  4  1  0
  3  5  2  0
  4  6  2  0
  5  7  1  0
  5  6  1  0
  6  9  1  0
  7  8  1  0
  7 15  2  0
  8 11  2  0
  8 10  1  0
  9 10  1  0
  9 16  2  0
 10 13  2  0
 11 12  1  0
 11 17  1  0
 12 19  1  0
 12 14  2  0
 13 14  1  0
 13 18  1  0
 14 21  1  0
 19 20  1  0
 20 22  1  0
 20 24  1  0
 20 27  1  1
 21 22  1  0
 21 23  1  1
 28 23  1  1
 24 25  2  0
 24 26  1  0
 28 29  1  0
 28 30  1  0
 29 31  1  0
 30 32  1  0
 31 33  1  0
 31 36  1  6
 32 33  1  0
 32 34  1  6
 33 35  1  6
M  END
>  <Formula>  (151) 
C26H28ClNO9

>  <FW>  (151) 
533.9548 (497.4939+36.4609)

>  <DSSTox_CID>  (151) 
27775

>  <NR-Aromatase>  (151) 
1

>  <NR-AR>  (151) 
0

>  <NR-AR-LBD>  (151) 
1

>  <NR-ER-LBD>  (151) 
1

>  <SR-ATAD5>  (151) 
1

>  <SR-MMP>  (151) 
1

>  <SR-p53>  (151) 
1

$$$$
NCGC00064532-02
     RDKit          2D

 35 38  0  0  1  0  0  0  0  0999 V2000
    3.1350   -4.5336    0.0000 C   0  0  0  0  0  0  0  0  0  0  0  0
    3.1350   -3.7008    0.0000 C   0  0  0  0  0  0  0  0  0  0  0  0
    3.8500   -3.2922    0.0000 N   0  0  0  0  0  0  0  0  0  0  0  0
    3.8500   -4.9343    0.0000 C   0  0  0  0  0  0  0  0  0  0  0  0
    4.5650   -4.5336    0.0000 C   0  0  0  0  0  0  0  0  0  0  0  0
    4.5650   -3.7008    0.0000 C   0  0  0  0  0  0  0  0  0  0  0  0
    5.2721   -3.2922    0.0000 N   0  0  0  0  0  0  0  0  0  0  0  0
    5.9950   -3.7008    0.0000 C   0  0  0  0  0  0  0  0  0  0  0  0
    5.9950   -4.5336    0.0000 C   0  0  0  0  0  0  0  0  0  0  0  0
    5.2721   -4.9343    0.0000 C   0  0  0  0  0  0  0  0  0  0  0  0
    5.2721   -2.4672    0.0000 C   0  0  0  0  0  0  0  0  0  0  0  0
    4.5650   -2.0586    0.0000 C   0  0  0  0  0  0  0  0  0  0  0  0
    4.5650   -1.2257    0.0000 C   0  0  0  0  0  0  0  0  0  0  0  0
    5.2721   -0.8250    0.0000 C   0  0  0  0  0  0  0  0  0  0  0  0
    5.9950   -1.2257    0.0000 C   0  0  0  0  0  0  0  0  0  0  0  0
    5.9950   -2.0586    0.0000 C   0  0  0  0  0  0  0  0  0  0  0  0
    6.7022   -2.4672    0.0000 F   0  0  0  0  0  0  0  0  0  0  0  0
    5.2721    0.0000    0.0000 F   0  0  0  0  0  0  0  0  0  0  0  0
    5.2721   -5.7593    0.0000 O   0  0  0  0  0  0  0  0  0  0  0  0
    6.7022   -4.9343    0.0000 C   0  0  0  0  0  0  0  0  0  0  0  0
    7.4250   -4.5336    0.0000 O   0  0  0  0  0  0  0  0  0  0  0  0
    6.7022   -5.7593    0.0000 O   0  0  0  0  0  0  0  0  0  0  0  0
    2.4357   -4.9343    0.0000 F   0  0  0  0  0  0  0  0  0  0  0  0
    2.4357   -3.2922    0.0000 N   0  0  0  0  0  0  0  0  0  0  0  0
    1.6736   -3.6221    0.0000 C   0  0  0  0  0  0  0  0  0  0  0  0
    2.3336   -2.4750    0.0000 C   0  0  0  0  0  0  0  0  0  0  0  0
    1.5322   -2.2943    0.0000 C   0  0  0  0  0  0  0  0  0  0  0  0
    1.1314   -3.0171    0.0000 C   0  0  0  0  0  0  0  0  0  0  0  0
    0.7229   -2.2943    0.0000 C   0  0  0  0  0  0  0  0  0  0  0  0
    0.0000   -1.8936    0.0000 N   0  0  0  0  0  0  0  0  0  0  0  0
    3.1979   -6.9143    0.0000 S   0  0  0  0  0  0  0  0  0  0  0  0
    3.1979   -7.8571    0.0000 O   0  0  0  0  0  0  0  0  0  0  0  0
    4.0150   -6.9143    0.0000 O   0  0  0  0  0  0  0  0  0  0  0  0
    3.1979   -6.0972    0.0000 O   0  0  0  0  0  0  0  0  0  0  0  0
    2.3336   -6.9143    0.0000 C   0  0  0  0  0  0  0  0  0  0  0  0
  1  4  2  0
  1 23  1  0
  1  2  1  0
  2 24  1  0
  2  3  2  0
  3  6  1  0
  4  5  1  0
  5 10  1  0
  5  6  2  0
  6  7  1  0
  7  8  1  0
  7 11  1  0
  8  9  2  0
  9 20  1  0
  9 10  1  0
 10 19  2  0
 11 16  1  0
 11 12  2  0
 12 13  1  0
 13 14  2  0
 14 18  1  0
 14 15  1  0
 15 16  2  0
 16 17  1  0
 20 21  1  0
 20 22  2  0
 24 25  1  0
 24 26  1  0
 28 25  1  6
 27 26  1  6
 27 28  1  0
 27 29  1  0
 28 29  1  0
 29 30  1  1
 31 32  2  0
 31 33  1  0
 31 34  2  0
 31 35  1  0
M  END
>  <Formula>  (152) 
C21H19F3N4O6S

>  <FW>  (152) 
512.4590 (416.3533+96.1057)

>  <DSSTox_CID>  (152) 
25701

>  <NR-Aromatase>  (152) 
1

>  <NR-AR>  (152) 
0

>  <NR-AR-LBD>  (152) 
1

>  <NR-PPAR-gamma>  (152) 
1

>  <NR-AhR>  (152) 
0

>  <SR-ATAD5>  (152) 
0

>  <SR-p53>  (152) 
1

$$$$
NCGC00254012-01
     RDKit          2D

 29 32  0  0  0  0  0  0  0  0999 V2000
    1.1233    0.0000    0.0000 C   0  0  0  0  0  0  0  0  0  0  0  0
    0.7169   -0.7169    0.0000 C   0  0  0  0  0  0  0  0  0  0  0  0
    0.2956   -1.4337    0.0000 C   0  0  0  0  0  0  0  0  0  0  0  0
    0.0000   -0.2956    0.0000 O   0  0  0  0  0  0  0  0  0  0  0  0
    1.4263   -1.1233    0.0000 C   0  0  0  0  0  0  0  0  0  0  0  0
    1.4263   -1.9510    0.0000 C   0  0  0  0  0  0  0  0  0  0  0  0
    2.1432   -2.3722    0.0000 N   0  0  0  0  0  0  0  0  0  0  0  0
    2.8600   -1.9510    0.0000 N   0  0  0  0  0  0  0  0  0  0  0  0
    3.6434   -2.2097    0.0000 C   0  0  0  0  0  0  0  0  0  0  0  0
    4.1311   -1.5445    0.0000 C   0  0  0  0  0  0  0  0  0  0  0  0
    3.6434   -0.8794    0.0000 N   0  0  0  0  0  0  0  0  0  0  0  0
    2.8600   -1.1233    0.0000 C   0  0  0  0  0  0  0  0  0  0  0  0
    2.1432   -0.7169    0.0000 N   0  0  0  0  0  0  0  0  0  0  0  0
    3.9021   -3.0004    0.0000 C   0  0  0  0  0  0  0  0  0  0  0  0
    3.3478   -3.6138    0.0000 C   0  0  0  0  0  0  0  0  0  0  0  0
    3.6064   -4.3898    0.0000 C   0  0  0  0  0  0  0  0  0  0  0  0
    4.4120   -4.5746    0.0000 C   0  0  0  0  0  0  0  0  0  0  0  0
    4.6706   -5.3579    0.0000 F   0  0  0  0  0  0  0  0  0  0  0  0
    4.9736   -3.9537    0.0000 C   0  0  0  0  0  0  0  0  0  0  0  0
    4.7076   -3.1704    0.0000 C   0  0  0  0  0  0  0  0  0  0  0  0
    5.7792   -4.1237    0.0000 C   0  0  0  0  0  0  0  0  0  0  0  0
    6.0231   -4.9071    0.0000 C   0  0  0  0  0  0  0  0  0  0  0  0
    5.4762   -5.5279    0.0000 F   0  0  0  0  0  0  0  0  0  0  0  0
    6.8434   -5.0919    0.0000 C   0  0  0  0  0  0  0  0  0  0  0  0
    7.3902   -4.4711    0.0000 C   0  0  0  0  0  0  0  0  0  0  0  0
    7.1316   -3.6877    0.0000 C   0  0  0  0  0  0  0  0  0  0  0  0
    6.3260   -3.5178    0.0000 C   0  0  0  0  0  0  0  0  0  0  0  0
    6.0747   -2.7270    0.0000 C   0  0  0  0  0  0  0  0  0  0  0  0
    5.8161   -1.9436    0.0000 N   0  0  0  0  0  0  0  0  0  0  0  0
  1  2  1  0
  2  3  1  0
  2  4  1  0
  2  5  1  0
  5  6  1  0
  5 13  2  0
  6  7  2  0
  7  8  1  0
  8  9  1  0
  8 12  1  0
  9 10  2  0
  9 14  1  0
 10 11  1  0
 11 12  2  0
 12 13  1  0
 14 15  2  0
 14 20  1  0
 15 16  1  0
 16 17  2  0
 17 18  1  0
 17 19  1  0
 19 20  2  0
 19 21  1  0
 21 22  2  0
 21 27  1  0
 22 23  1  0
 22 24  1  0
 24 25  2  0
 25 26  1  0
 26 27  2  0
 27 28  1  0
 28 29  3  0
M  END
>  <Formula>  (153) 
C21H15F2N5O

>  <FW>  (153) 
391.3735

>  <DSSTox_CID>  (153) 
27330

>  <NR-Aromatase>  (153) 
1

>  <NR-AR>  (153) 
0

>  <NR-ER>  (153) 
0

>  <NR-ER-LBD>  (153) 
0

>  <SR-ATAD5>  (153) 
0

>  <SR-HSE>  (153) 
0

>  <SR-MMP>  (153) 
1

>  <SR-p53>  (153) 
0

$$$$
NCGC00164604-01
     RDKit          2D

 31 32  0  0  1  0  0  0  0  0999 V2000
    0.4295    0.0000    0.0000 Na  0  0  0  0  0 15  0  0  0  0  0  0
    0.0000   -0.9294    0.0000 O   0  0  0  0  0  0  0  0  0  0  0  0
    0.8238   -0.9294    0.0000 C   0  0  0  0  0  0  0  0  0  0  0  0
    1.2322   -1.6335    0.0000 C   0  0  0  0  0  0  0  0  0  0  0  0
    2.0630   -1.6335    0.0000 C   0  0  0  0  0  0  0  0  0  0  0  0
    2.4714   -2.3517    0.0000 C   0  0  0  0  0  0  0  0  0  0  0  0
    3.2951   -2.3517    0.0000 C   0  0  0  0  0  0  0  0  0  0  0  0
    3.7176   -3.0698    0.0000 C   0  0  0  0  0  0  0  0  0  0  0  0
    3.2951   -3.7810    0.0000 C   0  0  0  0  0  0  0  0  0  0  0  0
    3.7176   -4.4991    0.0000 C   0  0  0  0  0  0  0  0  0  0  0  0
    3.3726   -5.2455    0.0000 C   0  0  0  0  0  0  0  0  0  0  0  0
    3.9922   -5.8088    0.0000 C   0  0  0  0  0  0  0  0  0  0  0  0
    4.7103   -5.3863    0.0000 C   0  0  0  0  0  0  0  0  0  0  0  0
    4.5344   -4.5836    0.0000 N   0  0  0  0  0  0  0  0  0  0  0  0
    5.0906   -3.9711    0.0000 C   0  0  0  0  0  0  0  0  0  0  0  0
    5.8932   -4.1400    0.0000 C   0  0  0  0  0  0  0  0  0  0  0  0
    4.8301   -3.1895    0.0000 C   0  0  0  0  0  0  0  0  0  0  0  0
    5.4144   -5.8088    0.0000 C   0  0  0  0  0  0  0  0  0  0  0  0
    5.4144   -6.6325    0.0000 C   0  0  0  0  0  0  0  0  0  0  0  0
    4.7103   -7.0409    0.0000 C   0  0  0  0  0  0  0  0  0  0  0  0
    3.9922   -6.6325    0.0000 C   0  0  0  0  0  0  0  0  0  0  0  0
    2.5699   -5.4144    0.0000 C   0  0  0  0  0  0  0  0  0  0  0  0
    2.3235   -6.2030    0.0000 C   0  0  0  0  0  0  0  0  0  0  0  0
    1.5138   -6.3720    0.0000 C   0  0  0  0  0  0  0  0  0  0  0  0
    0.9576   -5.7665    0.0000 C   0  0  0  0  0  0  0  0  0  0  0  0
    1.2040   -4.9779    0.0000 C   0  0  0  0  0  0  0  0  0  0  0  0
    2.0137   -4.8089    0.0000 C   0  0  0  0  0  0  0  0  0  0  0  0
    0.1479   -5.9355    0.0000 F   0  0  0  0  0  0  0  0  0  0  0  0
    3.7176   -1.6335    0.0000 O   0  0  0  0  0  0  0  0  0  0  0  0
    2.4714   -0.9294    0.0000 O   0  0  0  0  0  0  0  0  0  0  0  0
    1.2322   -0.2112    0.0000 O   0  0  0  0  0  0  0  0  0  0  0  0
  2  3  2  0
  3  4  1  0
  3 31  1  0
  4  5  1  0
  5  6  1  0
  5 30  1  6
  6  7  1  0
  7  8  1  0
  7 29  1  6
  8  9  2  0
  9 10  1  0
 10 11  2  0
 10 14  1  0
 11 12  1  0
 11 22  1  0
 12 13  2  0
 12 21  1  0
 13 14  1  0
 13 18  1  0
 14 15  1  0
 15 16  1  0
 15 17  1  0
 18 19  2  0
 19 20  1  0
 20 21  2  0
 22 23  2  0
 22 27  1  0
 23 24  1  0
 24 25  2  0
 25 26  1  0
 25 28  1  0
 26 27  2  0
M  CHG  2   1   1  31  -1
M  END
>  <Formula>  (154) 
C24H25FNNaO4

>  <FW>  (154) 
433.4478 (22.9892+410.4586)

>  <DSSTox_CID>  (154) 
24758

>  <NR-Aromatase>  (154) 
1

>  <NR-AR>  (154) 
0

>  <NR-ER>  (154) 
0

>  <NR-ER-LBD>  (154) 
0

>  <NR-AhR>  (154) 
1

>  <SR-ATAD5>  (154) 
0

>  <SR-MMP>  (154) 
1

>  <SR-p53>  (154) 
0

$$$$
NCGC00015640-02
     RDKit          2D

 27 30  0  0  1  0  0  0  0  0999 V2000
    3.3718   -7.0528    0.0000 C   0  0  0  0  0  0  0  0  0  0  0  0
    2.5520   -7.0374    0.0000 C   0  0  0  0  0  0  0  0  0  0  0  0
    2.3277   -6.2486    0.0000 C   0  0  0  0  0  0  0  0  0  0  0  0
    2.9851   -5.7923    0.0000 O   0  0  0  0  0  0  0  0  0  0  0  0
    3.6424   -6.2795    0.0000 C   0  0  0  0  0  0  0  0  0  0  0  0
    0.0000   -1.6395    0.0000 C   0  0  0  0  0  0  0  0  0  0  0  0
    0.7192   -1.2296    0.0000 C   0  0  0  0  0  0  0  0  0  0  0  0
    1.4307   -1.6549    0.0000 C   0  0  0  0  0  0  0  0  0  0  0  0
    2.1421   -1.2451    0.0000 C   0  0  0  0  0  0  0  0  0  0  0  0
    2.1576   -0.4176    0.0000 C   0  0  0  0  0  0  0  0  0  0  0  0
    1.4461    0.0000    0.0000 C   0  0  0  0  0  0  0  0  0  0  0  0
    0.7192   -0.4022    0.0000 C   0  0  0  0  0  0  0  0  0  0  0  0
    1.4307   -2.4747    0.0000 C   0  0  0  0  0  0  0  0  0  0  0  0
    2.1344   -2.9000    0.0000 N   0  0  0  0  0  0  0  0  0  0  0  0
    2.1344   -3.7198    0.0000 C   0  0  0  0  0  0  0  0  0  0  0  0
    1.4152   -4.1374    0.0000 N   0  0  0  0  0  0  0  0  0  0  0  0
    1.4152   -4.9649    0.0000 C   0  0  0  0  0  0  0  0  0  0  0  0
    2.1267   -5.3670    0.0000 N   0  0  0  0  0  0  0  0  0  0  0  0
    2.8459   -4.1451    0.0000 C   0  0  0  0  0  0  0  0  0  0  0  0
    2.8459   -4.9649    0.0000 C   0  0  0  0  0  0  0  0  0  0  0  0
    3.6269   -5.2200    0.0000 N   0  0  0  0  0  0  0  0  0  0  0  0
    4.1219   -4.5627    0.0000 C   0  0  0  0  0  0  0  0  0  0  0  0
    3.6269   -3.8744    0.0000 N   0  0  0  0  0  0  0  0  0  0  0  0
    1.5390   -5.9702    0.0000 C   0  0  0  0  0  0  0  0  0  0  0  0
    0.9280   -6.5038    0.0000 O   0  0  0  0  0  0  0  0  0  0  0  0
    3.8281   -7.7334    0.0000 O   0  0  0  0  0  0  0  0  0  0  0  0
    2.0493   -7.6870    0.0000 O   0  0  0  0  0  0  0  0  0  0  0  0
  1  5  1  0
  1  2  1  0
  1 26  1  6
  2  3  1  0
  2 27  1  6
  3  4  1  0
  3 24  1  1
  4  5  1  0
  5 21  1  1
  6  7  1  0
  7  8  2  0
  7 12  1  0
  8  9  1  0
  8 13  1  0
  9 10  2  0
 10 11  1  0
 11 12  2  0
 13 14  1  0
 14 15  1  0
 15 16  2  0
 15 19  1  0
 16 17  1  0
 17 18  2  0
 18 20  1  0
 19 20  2  0
 19 23  1  0
 20 21  1  0
 21 22  1  0
 22 23  2  0
 24 25  1  0
M  END
>  <Formula>  (155) 
C18H21N5O4

>  <FW>  (155) 
371.3904

>  <DSSTox_CID>  (155) 
25168

>  <NR-Aromatase>  (155) 
1

>  <NR-AR>  (155) 
0

>  <NR-AR-LBD>  (155) 
0

>  <NR-ER>  (155) 
0

>  <NR-AhR>  (155) 
0

>  <SR-MMP>  (155) 
0

>  <SR-p53>  (155) 
0

$$$$
NCGC00257389-01
     RDKit          2D

 25 28  0  0  0  0  0  0  0  0999 V2000
    3.7446   -0.2399    0.0000 N   0  0  0  0  0  0  0  0  0  0  0  0
    4.4584   -0.5910    0.0000 C   0  0  0  0  0  0  0  0  0  0  0  0
    4.6281   -1.4042    0.0000 C   0  0  0  0  0  0  0  0  0  0  0  0
    4.1132   -2.0186    0.0000 N   0  0  0  0  0  0  0  0  0  0  0  0
    3.2999   -2.0186    0.0000 C   0  0  0  0  0  0  0  0  0  0  0  0
    2.7909   -1.3633    0.0000 C   0  0  0  0  0  0  0  0  0  0  0  0
    3.0015   -0.5675    0.0000 C   0  0  0  0  0  0  0  0  0  0  0  0
    2.3931    0.0000    0.0000 C   0  0  0  0  0  0  0  0  0  0  0  0
    1.5973   -0.2224    0.0000 C   0  0  0  0  0  0  0  0  0  0  0  0
    1.3925   -1.0181    0.0000 C   0  0  0  0  0  0  0  0  0  0  0  0
    1.9952   -1.5622    0.0000 C   0  0  0  0  0  0  0  0  0  0  0  0
    5.1957   -0.1697    0.0000 N   0  0  0  0  0  0  0  0  0  0  0  0
    5.8334   -0.7548    0.0000 N   0  0  0  0  0  0  0  0  0  0  0  0
    5.4648   -1.5213    0.0000 C   0  0  0  0  0  0  0  0  0  0  0  0
    2.9313   -4.2244    0.0000 C   0  0  0  0  0  0  0  0  0  0  0  0
    2.1063   -4.2244    0.0000 C   0  0  0  0  0  0  0  0  0  0  0  0
    1.6909   -3.5106    0.0000 C   0  0  0  0  0  0  0  0  0  0  0  0
    2.1063   -2.7968    0.0000 C   0  0  0  0  0  0  0  0  0  0  0  0
    2.9313   -2.7968    0.0000 C   0  0  0  0  0  0  0  0  0  0  0  0
    3.3350   -3.5106    0.0000 C   0  0  0  0  0  0  0  0  0  0  0  0
    4.1600   -3.5106    0.0000 Cl  0  0  0  0  0  0  0  0  0  0  0  0
    5.8510   -2.2292    0.0000 C   0  0  0  0  0  0  0  0  0  0  0  0
    0.6085   -1.2521    0.0000 N   0  0  0  0  0  0  0  0  0  0  0  0
    0.0000   -0.6963    0.0000 O   0  0  0  0  0  0  0  0  0  0  0  0
    0.4095   -2.0595    0.0000 O   0  0  0  0  0  0  0  0  0  0  0  0
  1  2  1  0
  1  7  1  0
  2  3  1  0
  2 12  2  0
  3  4  1  0
  3 14  2  0
  4  5  2  0
  5  6  1  0
  5 19  1  0
  6  7  2  0
  6 11  1  0
  7  8  1  0
  8  9  2  0
  9 10  1  0
 10 11  2  0
 10 23  1  0
 12 13  1  0
 13 14  1  0
 14 22  1  0
 15 20  2  0
 15 16  1  0
 16 17  2  0
 17 18  1  0
 18 19  2  0
 19 20  1  0
 20 21  1  0
 23 24  1  0
 23 25  2  0
M  CHG  2  23   1  24  -1
M  END
>  <Formula>  (156) 
C17H12ClN5O2

>  <FW>  (156) 
353.7625

>  <DSSTox_CID>  (156) 
28479

>  <NR-Aromatase>  (156) 
1

>  <NR-AR>  (156) 
0

>  <NR-AR-LBD>  (156) 
0

>  <NR-ER-LBD>  (156) 
1

>  <NR-AhR>  (156) 
1

>  <SR-ARE>  (156) 
1

>  <SR-ATAD5>  (156) 
1

>  <SR-p53>  (156) 
1

$$$$
NCGC00095189-01
     RDKit          2D

 32 35  0  0  1  0  0  0  0  0999 V2000
    8.8095   -2.3521    0.0000 Cl  0  0  0  0  0  0  0  0  0  0  0  0
    7.7876   -0.8105    0.0000 C   0  0  0  0  0  0  0  0  0  0  0  0
    6.9683   -0.8105    0.0000 C   0  0  0  0  0  0  0  0  0  0  0  0
    6.5543   -1.5240    0.0000 C   0  0  0  0  0  0  0  0  0  0  0  0
    6.1402   -0.8105    0.0000 O   0  0  0  0  0  0  0  0  0  0  0  0
    7.2678   -1.9381    0.0000 C   0  0  0  0  0  0  0  0  0  0  0  0
    7.9814   -1.5240    0.0000 O   0  0  0  0  0  0  0  0  0  0  0  0
    7.2678   -2.7574    0.0000 O   0  0  0  0  0  0  0  0  0  0  0  0
    6.5543   -3.1714    0.0000 C   0  0  0  0  0  0  0  0  0  0  0  0
    5.8407   -2.7574    0.0000 C   0  0  0  0  0  0  0  0  0  0  0  0
    5.8407   -1.9381    0.0000 C   0  0  0  0  0  0  0  0  0  0  0  0
    5.1183   -1.5240    0.0000 C   0  0  0  0  0  0  0  0  0  0  0  0
    4.4047   -1.9381    0.0000 C   0  0  0  0  0  0  0  0  0  0  0  0
    4.4047   -2.7574    0.0000 N   0  0  0  0  0  0  0  0  0  0  0  0
    3.6207   -3.0128    0.0000 C   0  0  0  0  0  0  0  0  0  0  0  0
    3.1362   -2.3521    0.0000 C   0  0  0  0  0  0  0  0  0  0  0  0
    3.6207   -1.6826    0.0000 C   0  0  0  0  0  0  0  0  0  0  0  0
    3.2859   -0.9250    0.0000 N   0  0  0  0  0  0  0  0  0  0  0  0
    2.4666   -0.8369    0.0000 C   0  0  0  0  0  0  0  0  0  0  0  0
    2.1319   -0.0881    0.0000 C   0  0  0  0  0  0  0  0  0  0  0  0
    1.3038    0.0000    0.0000 C   0  0  0  0  0  0  0  0  0  0  0  0
    0.8193   -0.6695    0.0000 C   0  0  0  0  0  0  0  0  0  0  0  0
    1.1541   -1.4183    0.0000 C   0  0  0  0  0  0  0  0  0  0  0  0
    0.6695   -2.0879    0.0000 C   0  0  0  0  0  0  0  0  0  0  0  0
    1.0043   -2.8455    0.0000 N   0  0  0  0  0  0  0  0  0  0  0  0
    0.5197   -3.5150    0.0000 C   0  0  0  0  0  0  0  0  0  0  0  0
    1.8324   -2.9336    0.0000 C   0  0  0  0  0  0  0  0  0  0  0  0
    1.9822   -1.5064    0.0000 C   0  0  0  0  0  0  0  0  0  0  0  0
    2.3169   -2.2641    0.0000 C   0  0  0  0  0  0  0  0  0  0  0  0
    0.0000   -0.5814    0.0000 O   0  0  0  0  0  0  0  0  0  0  0  0
    5.1183   -3.1714    0.0000 C   0  0  0  0  0  0  0  0  0  0  0  0
    5.1183   -3.9995    0.0000 O   0  0  0  0  0  0  0  0  0  0  0  0
  2  3  1  0
  3  4  1  0
  4  5  1  6
  4  6  1  0
  4 11  1  0
  6  7  2  0
  6  8  1  0
  8  9  1  0
  9 10  1  0
 10 11  2  0
 10 31  1  0
 11 12  1  0
 12 13  2  0
 13 14  1  0
 13 17  1  0
 14 15  1  0
 14 31  1  0
 15 16  1  0
 16 17  2  0
 16 29  1  0
 17 18  1  0
 18 19  2  0
 19 20  1  0
 19 28  1  0
 20 21  2  0
 21 22  1  0
 22 23  2  0
 22 30  1  0
 23 24  1  0
 23 28  1  0
 24 25  1  0
 25 26  1  0
 25 27  1  0
 28 29  2  0
 31 32  2  0
M  END
>  <Formula>  (157) 
C23H24ClN3O5

>  <FW>  (157) 
457.9068 (36.4609+421.4458)

>  <DSSTox_CID>  (157) 
25952

>  <NR-Aromatase>  (157) 
1

>  <NR-AR>  (157) 
0

>  <NR-ER-LBD>  (157) 
0

>  <NR-AhR>  (157) 
0

>  <SR-ATAD5>  (157) 
0

>  <SR-MMP>  (157) 
0

>  <SR-p53>  (157) 
1

$$$$
NCGC00255181-01
     RDKit          2D

 41 44  0  0  1  0  0  0  0  0999 V2000
    3.5692   -1.7157    0.0000 C   0  0  0  0  0  0  0  0  0  0  0  0
    4.2258   -1.2286    0.0000 C   0  0  0  0  0  0  0  0  0  0  0  0
    3.8127   -2.4995    0.0000 C   0  0  0  0  0  0  0  0  0  0  0  0
    4.8930   -1.7157    0.0000 N   0  0  0  0  0  0  0  0  0  0  0  0
    4.6389   -2.4995    0.0000 C   0  0  0  0  0  0  0  0  0  0  0  0
    4.2258   -0.4025    0.0000 C   0  0  0  0  0  0  0  0  0  0  0  0
    4.9460    0.0000    0.0000 C   0  0  0  0  0  0  0  0  0  0  0  0
    3.5268    0.0000    0.0000 C   0  0  0  0  0  0  0  0  0  0  0  0
    5.6132   -1.3133    0.0000 C   0  0  0  0  0  0  0  0  0  0  0  0
    6.3122   -1.7157    0.0000 C   0  0  0  0  0  0  0  0  0  0  0  0
    7.0324   -1.3133    0.0000 C   0  0  0  0  0  0  0  0  0  0  0  0
    7.7420   -1.7157    0.0000 C   0  0  0  0  0  0  0  0  0  0  0  0
    8.4622   -1.3133    0.0000 C   0  0  0  0  0  0  0  0  0  0  0  0
    9.1612   -1.7157    0.0000 C   0  0  0  0  0  0  0  0  0  0  0  0
    9.8814   -1.3133    0.0000 C   0  0  0  0  0  0  0  0  0  0  0  0
    7.0324   -0.4872    0.0000 O   0  0  0  0  0  0  0  0  0  0  0  0
    8.4622   -0.4872    0.0000 O   0  0  0  0  0  0  0  0  0  0  0  0
    9.8814   -0.4872    0.0000 O   0  0  0  0  0  0  0  0  0  0  0  0
   10.5910   -1.7157    0.0000 O   0  0  0  0  0  0  0  0  0  0  0  0
    3.3361   -3.1667    0.0000 C   0  0  0  0  0  0  0  0  0  0  0  0
    5.1260   -3.1667    0.0000 C   0  0  0  0  0  0  0  0  0  0  0  0
    6.3652   -3.8763    0.0000 C   0  0  0  0  0  0  0  0  0  0  0  0
    5.9415   -4.5859    0.0000 C   0  0  0  0  0  0  0  0  0  0  0  0
    5.9415   -3.1667    0.0000 C   0  0  0  0  0  0  0  0  0  0  0  0
    5.1260   -4.5859    0.0000 C   0  0  0  0  0  0  0  0  0  0  0  0
    4.7130   -3.8763    0.0000 C   0  0  0  0  0  0  0  0  0  0  0  0
    3.7386   -3.8657    0.0000 C   0  0  0  0  0  0  0  0  0  0  0  0
    3.3361   -4.5859    0.0000 C   0  0  0  0  0  0  0  0  0  0  0  0
    2.5101   -4.5859    0.0000 C   0  0  0  0  0  0  0  0  0  0  0  0
    2.5101   -3.1667    0.0000 C   0  0  0  0  0  0  0  0  0  0  0  0
    2.0970   -3.8657    0.0000 C   0  0  0  0  0  0  0  0  0  0  0  0
    1.4298   -0.4872    0.0000 C   0  0  0  0  0  0  0  0  0  0  0  0
    1.4298   -1.3133    0.0000 C   0  0  0  0  0  0  0  0  0  0  0  0
    0.7202   -0.0635    0.0000 C   0  0  0  0  0  0  0  0  0  0  0  0
    0.7202   -1.7157    0.0000 C   0  0  0  0  0  0  0  0  0  0  0  0
    0.0000   -0.4872    0.0000 C   0  0  0  0  0  0  0  0  0  0  0  0
    0.0000   -1.3133    0.0000 C   0  0  0  0  0  0  0  0  0  0  0  0
    2.1394   -1.7157    0.0000 N   0  0  0  0  0  0  0  0  0  0  0  0
    2.8489   -1.3133    0.0000 C   0  0  0  0  0  0  0  0  0  0  0  0
    2.8489   -0.4872    0.0000 O   0  0  0  0  0  0  0  0  0  0  0  0
    6.3652   -5.3061    0.0000 F   0  0  0  0  0  0  0  0  0  0  0  0
  1  2  2  0
  1  3  1  0
  1 39  1  0
  2  4  1  0
  2  6  1  0
  3  5  2  0
  3 20  1  0
  4  5  1  0
  4  9  1  0
  5 21  1  0
  6  7  1  0
  6  8  1  0
  9 10  1  0
 10 11  1  0
 11 12  1  0
 11 16  1  1
 12 13  1  0
 13 14  1  0
 13 17  1  1
 14 15  1  0
 15 18  1  0
 15 19  2  0
 20 27  2  0
 20 30  1  0
 21 24  2  0
 21 26  1  0
 22 23  2  0
 22 24  1  0
 23 25  1  0
 23 41  1  0
 25 26  2  0
 27 28  1  0
 28 29  2  0
 29 31  1  0
 30 31  2  0
 32 33  2  0
 32 34  1  0
 33 35  1  0
 33 38  1  0
 34 36  2  0
 35 37  2  0
 36 37  1  0
 38 39  1  0
 39 40  2  0
M  END
>  <Formula>  (158) 
C33H35FN2O5

>  <FW>  (158) 
558.6398

>  <DSSTox_CID>  (158) 
9868

>  <NR-Aromatase>  (158) 
1

>  <NR-AR>  (158) 
0

>  <NR-AR-LBD>  (158) 
0

>  <NR-ER>  (158) 
0

>  <NR-ER-LBD>  (158) 
0

>  <SR-ATAD5>  (158) 
0

>  <SR-HSE>  (158) 
0

>  <SR-p53>  (158) 
0

$$$$
NCGC00255845-01
     RDKit          2D

 83 88  0  0  1  0  0  0  0  0999 V2000
    3.5791   -3.6046    0.0000 C   0  0  0  0  0  0  0  0  0  0  0  0
    4.2391   -4.0995    0.0000 C   0  0  0  0  0  0  0  0  0  0  0  0
    3.8330   -2.8176    0.0000 C   0  0  0  0  0  0  0  0  0  0  0  0
    4.9118   -3.6046    0.0000 N   0  0  0  0  0  0  0  0  0  0  0  0
    4.6579   -2.8176    0.0000 C   0  0  0  0  0  0  0  0  0  0  0  0
    4.2391   -4.9245    0.0000 C   0  0  0  0  0  0  0  0  0  0  0  0
    4.9626   -5.3307    0.0000 C   0  0  0  0  0  0  0  0  0  0  0  0
    3.5411   -5.3307    0.0000 C   0  0  0  0  0  0  0  0  0  0  0  0
    5.6352   -4.0107    0.0000 C   0  0  0  0  0  0  0  0  0  0  0  0
    6.3333   -3.6046    0.0000 C   0  0  0  0  0  0  0  0  0  0  0  0
    7.0567   -4.0107    0.0000 C   0  0  0  0  0  0  0  0  0  0  0  0
    7.7675   -3.6046    0.0000 C   0  0  0  0  0  0  0  0  0  0  0  0
    8.4910   -4.0107    0.0000 C   0  0  0  0  0  0  0  0  0  0  0  0
    9.2017   -3.6046    0.0000 C   0  0  0  0  0  0  0  0  0  0  0  0
    9.9252   -4.0107    0.0000 C   0  0  0  0  0  0  0  0  0  0  0  0
    7.0567   -4.8357    0.0000 O   0  0  0  0  0  0  0  0  0  0  0  0
    8.4910   -4.8357    0.0000 O   0  0  0  0  0  0  0  0  0  0  0  0
    9.9252   -4.8357    0.0000 O   0  0  0  0  0  0  0  0  0  0  0  0
   10.6359   -3.6046    0.0000 O   0  0  0  0  0  0  0  0  0  0  0  0
    3.3507   -2.1450    0.0000 C   0  0  0  0  0  0  0  0  0  0  0  0
    5.1403   -2.1450    0.0000 C   0  0  0  0  0  0  0  0  0  0  0  0
    6.3841   -1.4342    0.0000 C   0  0  0  0  0  0  0  0  0  0  0  0
    5.9652   -0.7234    0.0000 C   0  0  0  0  0  0  0  0  0  0  0  0
    5.9652   -2.1450    0.0000 C   0  0  0  0  0  0  0  0  0  0  0  0
    5.1403   -0.7234    0.0000 C   0  0  0  0  0  0  0  0  0  0  0  0
    4.7341   -1.4342    0.0000 C   0  0  0  0  0  0  0  0  0  0  0  0
    3.7568   -1.4469    0.0000 C   0  0  0  0  0  0  0  0  0  0  0  0
    3.3507   -0.7234    0.0000 C   0  0  0  0  0  0  0  0  0  0  0  0
    2.5257   -0.7234    0.0000 C   0  0  0  0  0  0  0  0  0  0  0  0
    2.5257   -2.1450    0.0000 C   0  0  0  0  0  0  0  0  0  0  0  0
    2.1069   -1.4469    0.0000 C   0  0  0  0  0  0  0  0  0  0  0  0
    1.4342   -4.8357    0.0000 C   0  0  0  0  0  0  0  0  0  0  0  0
    1.4342   -4.0107    0.0000 C   0  0  0  0  0  0  0  0  0  0  0  0
    0.7234   -5.2672    0.0000 C   0  0  0  0  0  0  0  0  0  0  0  0
    0.7234   -3.6046    0.0000 C   0  0  0  0  0  0  0  0  0  0  0  0
    0.0000   -4.8357    0.0000 C   0  0  0  0  0  0  0  0  0  0  0  0
    0.0000   -4.0107    0.0000 C   0  0  0  0  0  0  0  0  0  0  0  0
    2.1450   -3.6046    0.0000 N   0  0  0  0  0  0  0  0  0  0  0  0
    2.8557   -4.0107    0.0000 C   0  0  0  0  0  0  0  0  0  0  0  0
    2.8557   -4.8357    0.0000 O   0  0  0  0  0  0  0  0  0  0  0  0
    6.3841    0.0000    0.0000 F   0  0  0  0  0  0  0  0  0  0  0  0
    3.6172   -9.0875    0.0000 C   0  0  0  0  0  0  0  0  0  0  0  0
    4.2772   -8.5925    0.0000 C   0  0  0  0  0  0  0  0  0  0  0  0
    3.8584   -9.8744    0.0000 C   0  0  0  0  0  0  0  0  0  0  0  0
    4.9499   -9.0875    0.0000 N   0  0  0  0  0  0  0  0  0  0  0  0
    4.6960   -9.8744    0.0000 C   0  0  0  0  0  0  0  0  0  0  0  0
    4.2772   -7.7675    0.0000 C   0  0  0  0  0  0  0  0  0  0  0  0
    5.0007   -7.3614    0.0000 C   0  0  0  0  0  0  0  0  0  0  0  0
    3.5791   -7.3614    0.0000 C   0  0  0  0  0  0  0  0  0  0  0  0
    5.6733   -8.6813    0.0000 C   0  0  0  0  0  0  0  0  0  0  0  0
    6.3714   -9.0875    0.0000 C   0  0  0  0  0  0  0  0  0  0  0  0
    7.0948   -8.6813    0.0000 C   0  0  0  0  0  0  0  0  0  0  0  0
    7.8056   -9.0875    0.0000 C   0  0  0  0  0  0  0  0  0  0  0  0
    8.5291   -8.6813    0.0000 C   0  0  0  0  0  0  0  0  0  0  0  0
    9.2271   -9.0875    0.0000 C   0  0  0  0  0  0  0  0  0  0  0  0
    9.9505   -8.6813    0.0000 C   0  0  0  0  0  0  0  0  0  0  0  0
    7.0948   -7.8563    0.0000 O   0  0  0  0  0  0  0  0  0  0  0  0
    8.5291   -7.8563    0.0000 O   0  0  0  0  0  0  0  0  0  0  0  0
    9.9505   -7.8563    0.0000 O   0  0  0  0  0  0  0  0  0  0  0  0
   10.6613   -9.0875    0.0000 O   0  0  0  0  0  0  0  0  0  0  0  0
    3.3761  -10.5471    0.0000 C   0  0  0  0  0  0  0  0  0  0  0  0
    5.1783  -10.5471    0.0000 C   0  0  0  0  0  0  0  0  0  0  0  0
    6.4222  -11.2578    0.0000 C   0  0  0  0  0  0  0  0  0  0  0  0
    6.0033  -11.9686    0.0000 C   0  0  0  0  0  0  0  0  0  0  0  0
    6.0033  -10.5471    0.0000 C   0  0  0  0  0  0  0  0  0  0  0  0
    5.1783  -11.9686    0.0000 C   0  0  0  0  0  0  0  0  0  0  0  0
    4.7595  -11.2578    0.0000 C   0  0  0  0  0  0  0  0  0  0  0  0
    3.7822  -11.2451    0.0000 C   0  0  0  0  0  0  0  0  0  0  0  0
    3.3761  -11.9686    0.0000 C   0  0  0  0  0  0  0  0  0  0  0  0
    2.5511  -11.9686    0.0000 C   0  0  0  0  0  0  0  0  0  0  0  0
    2.5511  -10.5471    0.0000 C   0  0  0  0  0  0  0  0  0  0  0  0
    2.1322  -11.2451    0.0000 C   0  0  0  0  0  0  0  0  0  0  0  0
    1.4723   -7.8563    0.0000 C   0  0  0  0  0  0  0  0  0  0  0  0
    1.4723   -8.6813    0.0000 C   0  0  0  0  0  0  0  0  0  0  0  0
    0.7615   -7.4248    0.0000 C   0  0  0  0  0  0  0  0  0  0  0  0
    0.7615   -9.0875    0.0000 C   0  0  0  0  0  0  0  0  0  0  0  0
    0.0381   -7.8563    0.0000 C   0  0  0  0  0  0  0  0  0  0  0  0
    0.0381   -8.6813    0.0000 C   0  0  0  0  0  0  0  0  0  0  0  0
    2.1830   -9.0875    0.0000 N   0  0  0  0  0  0  0  0  0  0  0  0
    2.8938   -8.6813    0.0000 C   0  0  0  0  0  0  0  0  0  0  0  0
    2.8938   -7.8563    0.0000 O   0  0  0  0  0  0  0  0  0  0  0  0
    6.4222  -12.6920    0.0000 F   0  0  0  0  0  0  0  0  0  0  0  0
    9.9252   -6.3460    0.0000 Ca  0  0  0  0  0 15  0  0  0  0  0  0
  1  2  2  0
  1  3  1  0
  1 39  1  0
  2  4  1  0
  2  6  1  0
  3  5  2  0
  3 20  1  0
  4  5  1  0
  4  9  1  0
  5 21  1  0
  6  7  1  0
  6  8  1  0
  9 10  1  0
 10 11  1  0
 11 12  1  0
 11 16  1  6
 12 13  1  0
 13 14  1  0
 13 17  1  6
 14 15  1  0
 15 18  1  0
 15 19  2  0
 20 27  2  0
 20 30  1  0
 21 24  2  0
 21 26  1  0
 22 23  2  0
 22 24  1  0
 23 25  1  0
 23 41  1  0
 25 26  2  0
 27 28  1  0
 28 29  2  0
 29 31  1  0
 30 31  2  0
 32 33  2  0
 32 34  1  0
 33 35  1  0
 33 38  1  0
 34 36  2  0
 35 37  2  0
 36 37  1  0
 38 39  1  0
 39 40  2  0
 42 43  2  0
 42 44  1  0
 42 80  1  0
 43 45  1  0
 43 47  1  0
 44 46  2  0
 44 61  1  0
 45 46  1  0
 45 50  1  0
 46 62  1  0
 47 48  1  0
 47 49  1  0
 50 51  1  0
 51 52  1  0
 52 53  1  0
 52 57  1  1
 53 54  1  0
 54 55  1  0
 54 58  1  1
 55 56  1  0
 56 59  1  0
 56 60  2  0
 61 68  2  0
 61 71  1  0
 62 65  2  0
 62 67  1  0
 63 64  2  0
 63 65  1  0
 64 66  1  0
 64 82  1  0
 66 67  2  0
 68 69  1  0
 69 70  2  0
 70 72  1  0
 71 72  2  0
 73 74  2  0
 73 75  1  0
 74 76  1  0
 74 79  1  0
 75 77  2  0
 76 78  2  0
 77 78  1  0
 79 80  1  0
 80 81  2  0
M  CHG  3  18  -1  59  -1  83   2
M  END
>  <Formula>  (159) 
C66H68CaF2N4O10

>  <FW>  (159) 
1155.3417 (557.6324+557.6324+40.0769)

>  <DSSTox_CID>  (159) 
24303

>  <NR-Aromatase>  (159) 
1

>  <NR-AR>  (159) 
0

>  <NR-ER>  (159) 
0

>  <NR-ER-LBD>  (159) 
0

>  <NR-AhR>  (159) 
0

>  <SR-ATAD5>  (159) 
0

>  <SR-HSE>  (159) 
0

>  <SR-p53>  (159) 
0

$$$$
NCGC00024246-05
     RDKit          2D

 38 42  0  0  1  0  0  0  0  0999 V2000
    2.3886   -5.9401    0.0000 C   0  0  0  0  0  0  0  0  0  0  0  0
    1.8622   -5.3115    0.0000 C   0  0  0  0  0  0  0  0  0  0  0  0
    1.0450   -5.4529    0.0000 O   0  0  0  0  0  0  0  0  0  0  0  0
    2.1450   -4.5336    0.0000 C   0  0  0  0  0  0  0  0  0  0  0  0
    1.3278   -4.3922    0.0000 O   0  0  0  0  0  0  0  0  0  0  0  0
    2.1450   -3.7086    0.0000 C   0  0  0  0  0  0  0  0  0  0  0  0
    2.8600   -3.2922    0.0000 C   0  0  0  0  0  0  0  0  0  0  0  0
    2.8600   -2.4750    0.0000 O   0  0  0  0  0  0  0  0  0  0  0  0
    2.1450   -2.0586    0.0000 C   0  0  0  0  0  0  0  0  0  0  0  0
    1.4300   -2.4750    0.0000 C   0  0  0  0  0  0  0  0  0  0  0  0
    0.7150   -2.0586    0.0000 C   0  0  0  0  0  0  0  0  0  0  0  0
    0.0000   -2.4750    0.0000 N   0  0  0  0  0  0  0  0  0  0  0  0
    0.7150   -1.2336    0.0000 C   0  0  0  0  0  0  0  0  0  0  0  0
    0.0000   -0.8250    0.0000 O   0  0  0  0  0  0  0  0  0  0  0  0
    1.4300   -0.8250    0.0000 C   0  0  0  0  0  0  0  0  0  0  0  0
    1.4300    0.0000    0.0000 C   0  0  0  0  0  0  0  0  0  0  0  0
    2.1450   -1.2336    0.0000 O   0  0  0  0  0  0  0  0  0  0  0  0
    3.5750   -3.7086    0.0000 C   0  0  0  0  0  0  0  0  0  0  0  0
    4.2822   -3.2922    0.0000 C   0  0  0  0  0  0  0  0  0  0  0  0
    4.2822   -2.4750    0.0000 O   0  0  0  0  0  0  0  0  0  0  0  0
    4.9972   -3.7086    0.0000 C   0  0  0  0  0  0  0  0  0  0  0  0
    5.7122   -3.2922    0.0000 C   0  0  0  0  0  0  0  0  0  0  0  0
    5.7122   -2.4750    0.0000 O   0  0  0  0  0  0  0  0  0  0  0  0
    6.4272   -3.7086    0.0000 C   0  0  0  0  0  0  0  0  0  0  0  0
    7.1422   -3.2922    0.0000 C   0  0  0  0  0  0  0  0  0  0  0  0
    7.1422   -2.4750    0.0000 O   0  0  0  0  0  0  0  0  0  0  0  0
    7.8572   -2.0586    0.0000 C   0  0  0  0  0  0  0  0  0  0  0  0
    7.8572   -3.7086    0.0000 C   0  0  0  0  0  0  0  0  0  0  0  0
    7.8572   -4.5336    0.0000 C   0  0  0  0  0  0  0  0  0  0  0  0
    7.1422   -4.9422    0.0000 C   0  0  0  0  0  0  0  0  0  0  0  0
    6.4272   -4.5336    0.0000 C   0  0  0  0  0  0  0  0  0  0  0  0
    5.7122   -4.9422    0.0000 C   0  0  0  0  0  0  0  0  0  0  0  0
    5.7122   -5.7672    0.0000 O   0  0  0  0  0  0  0  0  0  0  0  0
    4.9972   -4.5336    0.0000 C   0  0  0  0  0  0  0  0  0  0  0  0
    4.2822   -4.9422    0.0000 C   0  0  0  0  0  0  0  0  0  0  0  0
    4.2822   -5.7672    0.0000 O   0  0  0  0  0  0  0  0  0  0  0  0
    3.5750   -4.5336    0.0000 C   0  0  0  0  0  0  0  0  0  0  0  0
    2.8600   -4.9422    0.0000 C   0  0  0  0  0  0  0  0  0  0  0  0
  1  2  1  0
  2  3  2  0
  4  2  1  0
  4  5  1  6
  4  6  1  0
  4 38  1  0
  6  7  1  0
  7  8  1  6
  7 18  1  0
  9  8  1  1
  9 10  1  0
  9 17  1  0
 10 11  1  0
 11 12  1  6
 11 13  1  0
 13 14  1  6
 13 15  1  0
 15 16  1  6
 15 17  1  0
 18 19  1  0
 18 37  2  0
 19 20  1  0
 19 21  2  0
 21 22  1  0
 21 34  1  0
 22 23  2  0
 22 24  1  0
 24 25  2  0
 24 31  1  0
 25 26  1  0
 25 28  1  0
 26 27  1  0
 28 29  2  0
 29 30  1  0
 30 31  2  0
 31 32  1  0
 32 33  2  0
 32 34  1  0
 34 35  2  0
 35 36  1  0
 35 37  1  0
 37 38  1  0
M  END
>  <Formula>  (160) 
C27H29NO10

>  <FW>  (160) 
527.5199

>  <DSSTox_CID>  (160) 
2883

>  <NR-Aromatase>  (160) 
1

>  <NR-AR>  (160) 
0

>  <NR-AR-LBD>  (160) 
1

>  <NR-ER>  (160) 
1

>  <NR-ER-LBD>  (160) 
1

>  <SR-ATAD5>  (160) 
1

>  <SR-MMP>  (160) 
1

>  <SR-p53>  (160) 
1

$$$$
NCGC00182055-02
     RDKit          2D

 39 42  0  0  0  0  0  0  0  0999 V2000
    2.9333   -2.1163    0.0000 N   0  0  0  0  0  0  0  0  0  0  0  0
    3.4156   -1.4469    0.0000 C   0  0  0  0  0  0  0  0  0  0  0  0
    4.2425   -1.4469    0.0000 C   0  0  0  0  0  0  0  0  0  0  0  0
    4.6559   -2.1557    0.0000 C   0  0  0  0  0  0  0  0  0  0  0  0
    5.4827   -2.1557    0.0000 C   0  0  0  0  0  0  0  0  0  0  0  0
    5.8961   -1.4469    0.0000 C   0  0  0  0  0  0  0  0  0  0  0  0
    6.7229   -1.4371    0.0000 O   0  0  0  0  0  0  0  0  0  0  0  0
    5.4827   -0.7383    0.0000 C   0  0  0  0  0  0  0  0  0  0  0  0
    4.6559   -0.7383    0.0000 C   0  0  0  0  0  0  0  0  0  0  0  0
    2.9333   -0.7874    0.0000 C   0  0  0  0  0  0  0  0  0  0  0  0
    3.1892    0.0000    0.0000 C   0  0  0  0  0  0  0  0  0  0  0  0
    2.1458   -1.0335    0.0000 C   0  0  0  0  0  0  0  0  0  0  0  0
    1.4273   -0.6300    0.0000 C   0  0  0  0  0  0  0  0  0  0  0  0
    0.7185   -1.0335    0.0000 C   0  0  0  0  0  0  0  0  0  0  0  0
    0.0000   -0.6300    0.0000 O   0  0  0  0  0  0  0  0  0  0  0  0
    0.7185   -1.8604    0.0000 C   0  0  0  0  0  0  0  0  0  0  0  0
    1.4273   -2.2738    0.0000 C   0  0  0  0  0  0  0  0  0  0  0  0
    2.1458   -1.8604    0.0000 C   0  0  0  0  0  0  0  0  0  0  0  0
    3.1892   -2.9037    0.0000 C   0  0  0  0  0  0  0  0  0  0  0  0
    3.9964   -3.0711    0.0000 C   0  0  0  0  0  0  0  0  0  0  0  0
    4.2523   -3.8586    0.0000 C   0  0  0  0  0  0  0  0  0  0  0  0
    5.0594   -4.0259    0.0000 C   0  0  0  0  0  0  0  0  0  0  0  0
    5.6106   -3.4058    0.0000 C   0  0  0  0  0  0  0  0  0  0  0  0
    6.4178   -3.5928    0.0000 O   0  0  0  0  0  0  0  0  0  0  0  0
    6.9690   -2.9726    0.0000 C   0  0  0  0  0  0  0  0  0  0  0  0
    7.7762   -3.1400    0.0000 C   0  0  0  0  0  0  0  0  0  0  0  0
    8.3274   -2.5199    0.0000 N   0  0  0  0  0  0  0  0  0  0  0  0
    9.1148   -2.7659    0.0000 C   0  0  0  0  0  0  0  0  0  0  0  0
    9.7941   -2.2836    0.0000 C   0  0  0  0  0  0  0  0  0  0  0  0
    9.8433   -1.4568    0.0000 C   0  0  0  0  0  0  0  0  0  0  0  0
    9.2231   -0.9154    0.0000 C   0  0  0  0  0  0  0  0  0  0  0  0
    8.4258   -1.0434    0.0000 C   0  0  0  0  0  0  0  0  0  0  0  0
    8.0124   -1.7718    0.0000 C   0  0  0  0  0  0  0  0  0  0  0  0
    5.3548   -2.6281    0.0000 C   0  0  0  0  0  0  0  0  0  0  0  0
    4.5476   -2.4510    0.0000 C   0  0  0  0  0  0  0  0  0  0  0  0
    1.3780   -3.0908    0.0000 C   0  0  0  0  0  0  0  0  0  0  0  0
    0.6694   -2.6774    0.0000 C   0  0  0  0  0  0  0  0  0  0  0  0
    1.3780   -3.9176    0.0000 O   0  0  0  0  0  0  0  0  0  0  0  0
    2.0966   -2.6774    0.0000 O   0  0  0  0  0  0  0  0  0  0  0  0
  1  2  1  0
  1 18  1  0
  1 19  1  0
  2  3  1  0
  2 10  2  0
  3  4  2  0
  3  9  1  0
  4  5  1  0
  5  6  2  0
  6  7  1  0
  6  8  1  0
  8  9  2  0
 10 11  1  0
 10 12  1  0
 12 13  2  0
 12 18  1  0
 13 14  1  0
 14 15  1  0
 14 16  2  0
 16 17  1  0
 17 18  2  0
 19 20  1  0
 20 21  2  0
 20 35  1  0
 21 22  1  0
 22 23  2  0
 23 24  1  0
 23 34  1  0
 24 25  1  0
 25 26  1  0
 26 27  1  0
 27 28  1  0
 27 33  1  0
 28 29  1  0
 29 30  1  0
 30 31  1  0
 31 32  1  0
 32 33  1  0
 34 35  2  0
 36 37  1  0
 36 38  2  0
 36 39  1  0
M  END
>  <Formula>  (161) 
C32H38N2O5

>  <FW>  (161) 
530.6545 (470.6026+60.0520)

>  <DSSTox_CID>  (161) 
28583

>  <NR-Aromatase>  (161) 
1

>  <NR-AR>  (161) 
0

>  <NR-AR-LBD>  (161) 
0

>  <NR-PPAR-gamma>  (161) 
0

>  <NR-AhR>  (161) 
0

>  <SR-ATAD5>  (161) 
0

>  <SR-MMP>  (161) 
1

>  <SR-p53>  (161) 
0

$$$$
NCGC00164553-01
     RDKit          2D

 20 22  0  0  1  0  0  0  0  0999 V2000
    1.4749    0.0000    0.0000 N   0  0  0  0  0  0  0  0  0  0  0  0
    1.4648   -0.8239    0.0000 C   0  0  0  0  0  0  0  0  0  0  0  0
    0.7374   -1.2257    0.0000 N   0  0  0  0  0  0  0  0  0  0  0  0
    0.7273   -2.0496    0.0000 C   0  0  0  0  0  0  0  0  0  0  0  0
    1.4343   -2.4769    0.0000 N   0  0  0  0  0  0  0  0  0  0  0  0
    2.1615   -2.0700    0.0000 C   0  0  0  0  0  0  0  0  0  0  0  0
    2.1717   -1.2461    0.0000 C   0  0  0  0  0  0  0  0  0  0  0  0
    2.9549   -1.0070    0.0000 N   0  0  0  0  0  0  0  0  0  0  0  0
    3.4330   -1.6834    0.0000 C   0  0  0  0  0  0  0  0  0  0  0  0
    2.9346   -2.3396    0.0000 N   0  0  0  0  0  0  0  0  0  0  0  0
    2.8939   -3.6314    0.0000 C   0  0  0  0  0  0  0  0  0  0  0  0
    2.2378   -3.1329    0.0000 O   0  0  0  0  0  0  0  0  0  0  0  0
    1.5614   -3.6110    0.0000 C   0  0  0  0  0  0  0  0  0  0  0  0
    0.7883   -3.3517    0.0000 C   0  0  0  0  0  0  0  0  0  0  0  0
    0.1577   -3.9009    0.0000 O   0  0  0  0  0  0  0  0  0  0  0  0
    1.8004   -4.4095    0.0000 C   0  0  0  0  0  0  0  0  0  0  0  0
    1.3122   -5.0656    0.0000 O   0  0  0  0  0  0  0  0  0  0  0  0
    2.6396   -4.4197    0.0000 C   0  0  0  0  0  0  0  0  0  0  0  0
    3.1075   -5.0859    0.0000 F   0  0  0  0  0  0  0  0  0  0  0  0
    0.0000   -2.4464    0.0000 Cl  0  0  0  0  0  0  0  0  0  0  0  0
  1  2  1  0
  2  3  2  0
  2  7  1  0
  3  4  1  0
  4  5  2  0
  4 20  1  0
  5  6  1  0
  6  7  2  0
  6 10  1  0
  7  8  1  0
  8  9  2  0
  9 10  1  0
 11 10  1  1
 11 12  1  0
 11 18  1  0
 12 13  1  0
 13 14  1  1
 13 16  1  0
 14 15  1  0
 16 17  1  6
 16 18  1  0
 18 19  1  1
M  END
>  <Formula>  (162) 
C10H11ClFN5O3

>  <FW>  (162) 
303.6774

>  <DSSTox_CID>  (162) 
26437

>  <NR-Aromatase>  (162) 
1

>  <NR-AR>  (162) 
0

>  <NR-AR-LBD>  (162) 
0

>  <NR-ER>  (162) 
0

>  <NR-ER-LBD>  (162) 
0

>  <NR-AhR>  (162) 
0

>  <SR-MMP>  (162) 
0

>  <SR-p53>  (162) 
1

$$$$
NCGC00254489-01
     RDKit          2D

 44 49  0  0  1  0  0  0  0  0999 V2000
    3.3797   -1.2931    0.0000 C   0  0  0  0  0  0  0  0  0  0  0  0
    2.7430   -1.6360    0.0000 N   0  0  0  0  0  0  0  0  0  0  0  0
    3.3797   -0.4507    0.0000 C   0  0  0  0  0  0  0  0  0  0  0  0
    4.8002   -3.7618    0.0000 C   0  0  0  0  0  0  0  0  0  0  0  0
    4.8002   -2.9487    0.0000 C   0  0  0  0  0  0  0  0  0  0  0  0
    4.0949   -1.7046    0.0000 C   0  0  0  0  0  0  0  0  0  0  0  0
    4.8002   -1.2931    0.0000 N   0  0  0  0  0  0  0  0  0  0  0  0
    2.0866   -1.2049    0.0000 C   0  0  0  0  0  0  0  0  0  0  0  0
    2.0866   -0.4507    0.0000 C   0  0  0  0  0  0  0  0  0  0  0  0
    5.5056   -2.5274    0.0000 C   0  0  0  0  0  0  0  0  0  0  0  0
    6.2304   -3.7618    0.0000 C   0  0  0  0  0  0  0  0  0  0  0  0
    7.6509   -3.7520    0.0000 C   0  0  0  0  0  0  0  0  0  0  0  0
    4.0949   -2.5274    0.0000 C   0  0  0  0  0  0  0  0  0  0  0  0
    5.5056   -4.1732    0.0000 C   0  0  0  0  0  0  0  0  0  0  0  0
    7.6509   -2.9291    0.0000 C   0  0  0  0  0  0  0  0  0  0  0  0
    7.6509   -1.2736    0.0000 C   0  0  0  0  0  0  0  0  0  0  0  0
    4.0949   -4.1928    0.0000 C   0  0  0  0  0  0  0  0  0  0  0  0
    6.9358   -4.1732    0.0000 O   0  0  0  0  0  0  0  0  0  0  0  0
    5.5056   -1.7046    0.0000 C   0  0  0  0  0  0  0  0  0  0  0  0
    6.9260   -1.6850    0.0000 C   0  0  0  0  0  0  0  0  0  0  0  0
    8.3661   -1.6850    0.0000 C   0  0  0  0  0  0  0  0  0  0  0  0
    6.2304   -2.9487    0.0000 C   0  0  0  0  0  0  0  0  0  0  0  0
    4.0949   -0.0392    0.0000 C   0  0  0  0  0  0  0  0  0  0  0  0
    6.9260   -2.5079    0.0000 C   0  0  0  0  0  0  0  0  0  0  0  0
    8.3661   -2.5079    0.0000 C   0  0  0  0  0  0  0  0  0  0  0  0
    1.3715   -1.6654    0.0000 C   0  0  0  0  0  0  0  0  0  0  0  0
    1.3715    0.0000    0.0000 C   0  0  0  0  0  0  0  0  0  0  0  0
    4.8002   -0.4507    0.0000 C   0  0  0  0  0  0  0  0  0  0  0  0
    8.3661   -4.1635    0.0000 O   0  0  0  0  0  0  0  0  0  0  0  0
    3.3797   -3.7814    0.0000 O   0  0  0  0  0  0  0  0  0  0  0  0
    0.6759   -1.2539    0.0000 C   0  0  0  0  0  0  0  0  0  0  0  0
    7.6509   -0.4408    0.0000 O   0  0  0  0  0  0  0  0  0  0  0  0
    0.6759   -0.4114    0.0000 C   0  0  0  0  0  0  0  0  0  0  0  0
    5.5056   -5.0059    0.0000 O   0  0  0  0  0  0  0  0  0  0  0  0
    4.0949   -5.0059    0.0000 O   0  0  0  0  0  0  0  0  0  0  0  0
    6.2109   -1.2736    0.0000 O   0  0  0  0  0  0  0  0  0  0  0  0
    9.0812   -1.2736    0.0000 O   0  0  0  0  0  0  0  0  0  0  0  0
    0.0000   -1.7241    0.0000 O   0  0  0  0  0  0  0  0  0  0  0  0
    8.3661   -0.0196    0.0000 C   0  0  0  0  0  0  0  0  0  0  0  0
    6.2304   -5.4272    0.0000 C   0  0  0  0  0  0  0  0  0  0  0  0
    6.2109   -0.4408    0.0000 C   0  0  0  0  0  0  0  0  0  0  0  0
    9.7963   -1.6850    0.0000 C   0  0  0  0  0  0  0  0  0  0  0  0
    4.8002   -5.4272    0.0000 C   0  0  0  0  0  0  0  0  0  0  0  0
    0.0000   -2.5667    0.0000 C   0  0  0  0  0  0  0  0  0  0  0  0
  1  2  1  0
  1  3  2  0
  1  6  1  0
  2  8  1  0
  3  9  1  0
  3 23  1  0
  4  5  1  0
  4 14  1  0
  4 17  1  1
  5 13  1  1
  5 10  1  0
  6  7  1  0
  6 13  1  6
  7 19  1  0
  7 28  1  0
  8 26  2  0
  8  9  1  0
  9 27  2  0
 10 22  1  1
 10 19  1  0
 11 22  1  0
 11 18  1  1
 11 14  1  0
 12 18  1  0
 12 15  1  0
 12 29  2  0
 14 34  1  6
 15 24  1  0
 15 25  2  0
 16 21  2  0
 16 32  1  0
 16 20  1  0
 17 30  2  0
 17 35  1  0
 20 24  2  0
 20 36  1  0
 21 25  1  0
 21 37  1  0
 23 28  1  0
 26 31  1  0
 27 33  1  0
 31 38  1  0
 31 33  2  0
 32 39  1  0
 34 40  1  0
 35 43  1  0
 36 41  1  0
 37 42  1  0
 38 44  1  0
M  END
>  <Formula>  (163) 
C33H40N2O9

>  <FW>  (163) 
608.6787

>  <DSSTox_CID>  (163) 
1237

>  <NR-Aromatase>  (163) 
1

>  <NR-AR>  (163) 
0

>  <NR-ER-LBD>  (163) 
0

>  <NR-AhR>  (163) 
1

>  <SR-ARE>  (163) 
0

>  <SR-ATAD5>  (163) 
0

>  <SR-HSE>  (163) 
0

>  <SR-p53>  (163) 
0

$$$$
NCGC00254152-01
     RDKit          2D

 21 23  0  0  1  0  0  0  0  0999 V2000
    1.4196   -1.9269    0.0000 C   0  0  0  0  0  0  0  0  0  0  0  0
    1.4196   -2.7502    0.0000 C   0  0  0  0  0  0  0  0  0  0  0  0
    0.7165   -1.5086    0.0000 C   0  0  0  0  0  0  0  0  0  0  0  0
    0.7165   -3.1596    0.0000 C   0  0  0  0  0  0  0  0  0  0  0  0
    0.0000   -1.9269    0.0000 C   0  0  0  0  0  0  0  0  0  0  0  0
    0.0000   -2.7502    0.0000 C   0  0  0  0  0  0  0  0  0  0  0  0
    2.2073   -1.6688    0.0000 C   0  0  0  0  0  0  0  0  0  0  0  0
    2.6924   -2.3363    0.0000 C   0  0  0  0  0  0  0  0  0  0  0  0
    2.2073   -2.9994    0.0000 O   0  0  0  0  0  0  0  0  0  0  0  0
    3.1507   -3.0217    0.0000 C   0  0  0  0  0  0  0  0  0  0  0  0
    3.5068   -2.1761    0.0000 C   0  0  0  0  0  0  0  0  0  0  0  0
    3.9740   -2.9683    0.0000 C   0  0  0  0  0  0  0  0  0  0  0  0
    4.4324   -3.6669    0.0000 C   0  0  0  0  0  0  0  0  0  0  0  0
    4.0541   -4.4012    0.0000 C   0  0  0  0  0  0  0  0  0  0  0  0
    2.7814   -3.7649    0.0000 C   0  0  0  0  0  0  0  0  0  0  0  0
    3.2397   -4.4502    0.0000 C   0  0  0  0  0  0  0  0  0  0  0  0
    2.4654   -0.8856    0.0000 N   0  0  0  0  0  0  0  0  0  0  0  0
    3.7738   -1.4018    0.0000 O   0  0  0  0  0  0  0  0  0  0  0  0
    3.2264   -0.7743    0.0000 C   0  0  0  0  0  0  0  0  0  0  0  0
    3.7738   -2.4832    0.0000 O   0  0  0  0  0  0  0  0  0  0  0  0
    3.4979    0.0000    0.0000 C   0  0  0  0  0  0  0  0  0  0  0  0
  1  3  2  0
  1  7  1  0
  1  2  1  0
  2  4  2  0
  2  9  1  0
  3  5  1  0
  4  6  1  0
  5  6  2  0
  7  8  1  0
  7 17  1  6
  8  9  1  0
  8 10  1  0
  8 11  1  6
 10 12  2  0
 10 15  1  0
 11 18  1  0
 11 20  2  0
 12 13  1  0
 13 14  2  0
 14 16  1  0
 15 16  2  0
 18 19  1  0
 19 21  1  0
M  END
>  <Formula>  (164) 
C17H17NO3

>  <FW>  (164) 
283.3218

>  <DSSTox_CID>  (164) 
27362

>  <NR-Aromatase>  (164) 
1

>  <NR-AR>  (164) 
0

>  <NR-AR-LBD>  (164) 
0

>  <NR-ER-LBD>  (164) 
0

>  <NR-PPAR-gamma>  (164) 
0

>  <NR-AhR>  (164) 
0

>  <SR-ATAD5>  (164) 
0

>  <SR-HSE>  (164) 
0

>  <SR-p53>  (164) 
0

$$$$
NCGC00254993-01
     RDKit          2D

 22 24  0  0  1  0  0  0  0  0999 V2000
    3.6689   -2.6734    0.0000 N   0  0  0  0  0  0  0  0  0  0  0  0
    2.5839   -3.4395    0.0000 N   0  0  0  0  0  0  0  0  0  0  0  0
    3.4116   -3.4395    0.0000 C   0  0  0  0  0  0  0  0  0  0  0  0
    3.0089   -2.1644    0.0000 C   0  0  0  0  0  0  0  0  0  0  0  0
    2.3322   -2.6510    0.0000 C   0  0  0  0  0  0  0  0  0  0  0  0
    3.0201   -1.3478    0.0000 O   0  0  0  0  0  0  0  0  0  0  0  0
    4.4575   -2.4217    0.0000 N   0  0  0  0  0  0  0  0  0  0  0  0
    4.6364   -1.6051    0.0000 C   0  0  0  0  0  0  0  0  0  0  0  0
    4.0268   -1.0571    0.0000 C   0  0  0  0  0  0  0  0  0  0  0  0
    5.4250   -1.3590    0.0000 C   0  0  0  0  0  0  0  0  0  0  0  0
    4.2058   -0.2405    0.0000 C   0  0  0  0  0  0  0  0  0  0  0  0
    5.5928   -0.5593    0.0000 C   0  0  0  0  0  0  0  0  0  0  0  0
    4.9944    0.0000    0.0000 C   0  0  0  0  0  0  0  0  0  0  0  0
    1.7841   -2.0358    0.0000 C   0  0  0  0  0  0  0  0  0  0  0  0
    3.8982   -4.1163    0.0000 S   0  0  0  0  0  0  0  0  0  0  0  0
    3.5514   -4.8657    0.0000 C   0  0  0  0  0  0  0  0  0  0  0  0
    1.5548   -2.9306    0.0000 C   0  0  0  0  0  0  0  0  0  0  0  0
    1.4038   -3.7416    0.0000 C   0  0  0  0  0  0  0  0  0  0  0  0
    0.9396   -2.3825    0.0000 C   0  0  0  0  0  0  0  0  0  0  0  0
    0.6264   -4.0156    0.0000 C   0  0  0  0  0  0  0  0  0  0  0  0
    0.1510   -2.6622    0.0000 C   0  0  0  0  0  0  0  0  0  0  0  0
    0.0000   -3.4787    0.0000 C   0  0  0  0  0  0  0  0  0  0  0  0
  1  3  1  0
  1  4  1  0
  1  7  1  0
  2  3  2  0
  2  5  1  0
  3 15  1  0
  4  5  1  0
  4  6  2  0
  5 14  1  6
  5 17  1  0
  7  8  1  0
  8  9  2  0
  8 10  1  0
  9 11  1  0
 10 12  2  0
 11 13  2  0
 12 13  1  0
 15 16  1  0
 17 18  2  0
 17 19  1  0
 18 20  1  0
 19 21  2  0
 20 22  2  0
 21 22  1  0
M  END
>  <Formula>  (165) 
C17H17N3OS

>  <FW>  (165) 
311.4014

>  <DSSTox_CID>  (165) 
14590

>  <NR-Aromatase>  (165) 
1

>  <NR-AR>  (165) 
0

>  <NR-AhR>  (165) 
0

>  <SR-ARE>  (165) 
1

>  <SR-ATAD5>  (165) 
0

>  <SR-HSE>  (165) 
0

>  <SR-MMP>  (165) 
1

>  <SR-p53>  (165) 
0

$$$$
NCGC00257427-01
     RDKit          2D

 25 27  0  0  0  0  0  0  0  0999 V2000
    2.1512   -2.0285    0.0000 C   0  0  0  0  0  0  0  0  0  0  0  0
    2.1512   -2.8586    0.0000 O   0  0  0  0  0  0  0  0  0  0  0  0
    1.4293   -1.6098    0.0000 C   0  0  0  0  0  0  0  0  0  0  0  0
    1.4293   -0.7868    0.0000 C   0  0  0  0  0  0  0  0  0  0  0  0
    0.7147   -2.0285    0.0000 C   0  0  0  0  0  0  0  0  0  0  0  0
    0.7147   -0.3826    0.0000 C   0  0  0  0  0  0  0  0  0  0  0  0
    0.0000   -1.6098    0.0000 C   0  0  0  0  0  0  0  0  0  0  0  0
    0.0000   -0.7868    0.0000 C   0  0  0  0  0  0  0  0  0  0  0  0
    2.8659   -1.6098    0.0000 N   0  0  0  0  0  0  0  0  0  0  0  0
    2.1512   -0.3826    0.0000 Cl  0  0  0  0  0  0  0  0  0  0  0  0
    0.7147   -2.8586    0.0000 Cl  0  0  0  0  0  0  0  0  0  0  0  0
    4.4540   -0.8085    0.0000 O   0  0  0  0  0  0  0  0  0  0  0  0
    4.2879   -1.6098    0.0000 C   0  0  0  0  0  0  0  0  0  0  0  0
    5.2769   -0.7147    0.0000 C   0  0  0  0  0  0  0  0  0  0  0  0
    5.0026   -2.0285    0.0000 C   0  0  0  0  0  0  0  0  0  0  0  0
    5.6089   -1.4726    0.0000 C   0  0  0  0  0  0  0  0  0  0  0  0
    3.5661   -2.0213    0.0000 C   0  0  0  0  0  0  0  0  0  0  0  0
    3.5661   -2.8442    0.0000 C   0  0  0  0  0  0  0  0  0  0  0  0
    4.2879   -3.2629    0.0000 C   0  0  0  0  0  0  0  0  0  0  0  0
    5.0026   -2.8442    0.0000 C   0  0  0  0  0  0  0  0  0  0  0  0
    6.2442   -2.4471    0.0000 C   0  0  0  0  0  0  0  0  0  0  0  0
    6.4102   -1.6387    0.0000 C   0  0  0  0  0  0  0  0  0  0  0  0
    6.5835   -0.8374    0.0000 C   0  0  0  0  0  0  0  0  0  0  0  0
    7.2188   -1.8119    0.0000 O   0  0  0  0  0  0  0  0  0  0  0  0
    5.6884    0.0000    0.0000 C   0  0  0  0  0  0  0  0  0  0  0  0
  1  2  2  0
  1  3  1  0
  1  9  1  0
  3  4  2  0
  3  5  1  0
  4  6  1  0
  4 10  1  0
  5  7  2  0
  5 11  1  0
  6  8  2  0
  7  8  1  0
  9 17  1  0
 12 13  1  0
 12 14  1  0
 13 15  2  0
 13 17  1  0
 14 16  2  0
 14 25  1  0
 15 16  1  0
 15 20  1  0
 16 22  1  0
 17 18  2  0
 18 19  1  0
 19 20  2  0
 21 22  1  0
 22 23  1  0
 22 24  1  0
M  END
>  <Formula>  (166) 
C19H17Cl2NO3

>  <FW>  (166) 
378.2492

>  <DSSTox_CID>  (166) 
28148

>  <NR-Aromatase>  (166) 
1

>  <NR-AR>  (166) 
0

>  <NR-AR-LBD>  (166) 
0

>  <NR-ER-LBD>  (166) 
0

>  <NR-AhR>  (166) 
1

>  <SR-ATAD5>  (166) 
0

>  <SR-HSE>  (166) 
0

>  <SR-MMP>  (166) 
1

>  <SR-p53>  (166) 
0

$$$$
NCGC00256490-01
     RDKit          2D

 30 32  0  0  1  0  0  0  0  0999 V2000
    0.0000   -0.7163    0.0000 O   0  0  0  0  0  0  0  0  0  0  0  0
    0.8255   -0.7163    0.0000 C   0  0  0  0  0  0  0  0  0  0  0  0
    1.2348   -1.4258    0.0000 C   0  0  0  0  0  0  0  0  0  0  0  0
    2.0603   -1.4258    0.0000 C   0  0  0  0  0  0  0  0  0  0  0  0
    2.4696   -2.1422    0.0000 C   0  0  0  0  0  0  0  0  0  0  0  0
    3.2951   -2.1422    0.0000 C   0  0  0  0  0  0  0  0  0  0  0  0
    3.7113   -2.8517    0.0000 C   0  0  0  0  0  0  0  0  0  0  0  0
    3.2951   -3.5680    0.0000 C   0  0  0  0  0  0  0  0  0  0  0  0
    3.7113   -4.2843    0.0000 C   0  0  0  0  0  0  0  0  0  0  0  0
    3.3702   -5.0348    0.0000 C   0  0  0  0  0  0  0  0  0  0  0  0
    3.9842   -5.5874    0.0000 C   0  0  0  0  0  0  0  0  0  0  0  0
    4.7005   -5.1712    0.0000 C   0  0  0  0  0  0  0  0  0  0  0  0
    4.5299   -4.3662    0.0000 N   0  0  0  0  0  0  0  0  0  0  0  0
    5.0825   -3.7590    0.0000 C   0  0  0  0  0  0  0  0  0  0  0  0
    5.8876   -3.9296    0.0000 C   0  0  0  0  0  0  0  0  0  0  0  0
    4.8233   -2.9745    0.0000 C   0  0  0  0  0  0  0  0  0  0  0  0
    5.4100   -5.5874    0.0000 C   0  0  0  0  0  0  0  0  0  0  0  0
    5.4100   -6.4129    0.0000 C   0  0  0  0  0  0  0  0  0  0  0  0
    4.7005   -6.8222    0.0000 C   0  0  0  0  0  0  0  0  0  0  0  0
    3.9842   -6.4129    0.0000 C   0  0  0  0  0  0  0  0  0  0  0  0
    2.5652   -5.2053    0.0000 C   0  0  0  0  0  0  0  0  0  0  0  0
    2.3127   -5.9899    0.0000 C   0  0  0  0  0  0  0  0  0  0  0  0
    1.5077   -6.1605    0.0000 C   0  0  0  0  0  0  0  0  0  0  0  0
    0.9551   -5.5465    0.0000 C   0  0  0  0  0  0  0  0  0  0  0  0
    1.2075   -4.7619    0.0000 C   0  0  0  0  0  0  0  0  0  0  0  0
    2.0125   -4.5914    0.0000 C   0  0  0  0  0  0  0  0  0  0  0  0
    0.1501   -5.7170    0.0000 F   0  0  0  0  0  0  0  0  0  0  0  0
    3.7113   -1.4258    0.0000 O   0  0  0  0  0  0  0  0  0  0  0  0
    2.4696   -0.7163    0.0000 O   0  0  0  0  0  0  0  0  0  0  0  0
    1.2348    0.0000    0.0000 O   0  0  0  0  0  0  0  0  0  0  0  0
  1  2  2  0
  2  3  1  0
  2 30  1  0
  3  4  1  0
  4  5  1  0
  4 29  1  6
  5  6  1  0
  6  7  1  0
  6 28  1  6
  7  8  2  0
  8  9  1  0
  9 10  2  0
  9 13  1  0
 10 11  1  0
 10 21  1  0
 11 12  2  0
 11 20  1  0
 12 13  1  0
 12 17  1  0
 13 14  1  0
 14 15  1  0
 14 16  1  0
 17 18  2  0
 18 19  1  0
 19 20  2  0
 21 22  2  0
 21 26  1  0
 22 23  1  0
 23 24  2  0
 24 25  1  0
 24 27  1  0
 25 26  2  0
M  END
>  <Formula>  (167) 
C24H26FNO4

>  <FW>  (167) 
411.4659

>  <DSSTox_CID>  (167) 
636

>  <NR-Aromatase>  (167) 
1

>  <NR-AR>  (167) 
0

>  <NR-AR-LBD>  (167) 
0

>  <NR-ER>  (167) 
0

>  <NR-ER-LBD>  (167) 
0

>  <NR-AhR>  (167) 
1

>  <SR-ATAD5>  (167) 
0

>  <SR-HSE>  (167) 
0

>  <SR-MMP>  (167) 
0

$$$$
NCGC00092314-01
     RDKit          2D

 23 26  0  0  1  0  0  0  0  0999 V2000
    2.3580   -1.6383    0.0000 C   0  0  0  0  0  0  0  0  0  0  0  0
    2.3580   -2.4516    0.0000 C   0  0  0  0  0  0  0  0  0  0  0  0
    3.0601   -1.2287    0.0000 C   0  0  0  0  0  0  0  0  0  0  0  0
    1.6500   -1.2287    0.0000 C   0  0  0  0  0  0  0  0  0  0  0  0
    3.1420   -2.6623    0.0000 N   0  0  0  0  0  0  0  0  0  0  0  0
    1.6500   -2.8671    0.0000 N   0  0  0  0  0  0  0  0  0  0  0  0
    3.6394   -1.7963    0.0000 C   0  0  0  0  0  0  0  0  0  0  0  0
    3.0601   -0.4037    0.0000 C   0  0  0  0  0  0  0  0  0  0  0  0
    1.6500   -0.4037    0.0000 N   0  0  0  0  0  0  0  0  0  0  0  0
    0.9304   -1.6383    0.0000 N   0  0  0  0  0  0  0  0  0  0  0  0
    0.9304   -2.4516    0.0000 C   0  0  0  0  0  0  0  0  0  0  0  0
    2.3580    0.0000    0.0000 N   0  0  0  0  0  0  0  0  0  0  0  0
    3.7681    0.0000    0.0000 N   0  0  0  0  0  0  0  0  0  0  0  0
    0.9304    0.0000    0.0000 C   0  0  0  0  0  0  0  0  0  0  0  0
    3.1245   -4.1894    0.0000 C   0  0  0  0  0  0  0  0  0  0  0  0
    2.3580   -3.6394    0.0000 O   0  0  0  0  0  0  0  0  0  0  0  0
    2.8261   -5.0847    0.0000 C   0  0  0  0  0  0  0  0  0  0  0  0
    1.5974   -4.1894    0.0000 C   0  0  0  0  0  0  0  0  0  0  0  0
    1.8841   -5.0847    0.0000 C   0  0  0  0  0  0  0  0  0  0  0  0
    3.3878   -5.8511    0.0000 O   0  0  0  0  0  0  0  0  0  0  0  0
    0.6963   -3.8968    0.0000 C   0  0  0  0  0  0  0  0  0  0  0  0
    1.3341   -5.8511    0.0000 O   0  0  0  0  0  0  0  0  0  0  0  0
    0.0000   -4.5346    0.0000 O   0  0  0  0  0  0  0  0  0  0  0  0
  1  2  1  0
  1  3  1  0
  1  4  2  0
  2  5  1  0
  2  6  2  0
  3  7  2  0
  3  8  1  0
  4  9  1  0
  4 10  1  0
  5  7  1  0
 15  5  1  1
  6 11  1  0
  8 12  2  0
  8 13  1  0
  9 14  1  0
  9 12  1  0
 10 11  2  0
 15 16  1  0
 15 17  1  0
 16 18  1  0
 17 19  1  0
 17 20  1  6
 18 21  1  1
 18 19  1  0
 19 22  1  6
 21 23  1  0
M  END
>  <Formula>  (168) 
C13H16N6O4

>  <FW>  (168) 
320.3039

>  <DSSTox_CID>  (168) 
25743

>  <NR-Aromatase>  (168) 
1

>  <NR-AR>  (168) 
0

>  <NR-AR-LBD>  (168) 
0

>  <NR-ER-LBD>  (168) 
0

>  <NR-PPAR-gamma>  (168) 
0

>  <NR-AhR>  (168) 
1

>  <SR-ATAD5>  (168) 
0

>  <SR-MMP>  (168) 
1

>  <SR-p53>  (168) 
0

$$$$
NCGC00167492-01
     RDKit          2D

 46 48  0  0  0  0  0  0  0  0999 V2000
    2.1368   -1.2227    0.0000 C   0  0  0  0  0  0  0  0  0  0  0  0
    2.1368   -2.0453    0.0000 C   0  0  0  0  0  0  0  0  0  0  0  0
    2.8566   -2.4795    0.0000 C   0  0  0  0  0  0  0  0  0  0  0  0
    3.5651   -2.0453    0.0000 C   0  0  0  0  0  0  0  0  0  0  0  0
    3.5651   -1.2227    0.0000 C   0  0  0  0  0  0  0  0  0  0  0  0
    2.8566   -0.8227    0.0000 C   0  0  0  0  0  0  0  0  0  0  0  0
    4.2735   -0.8227    0.0000 N   0  0  0  0  0  0  0  0  0  0  0  0
    4.2735    0.0000    0.0000 O   0  0  0  0  0  0  0  0  0  0  0  0
    4.9934   -1.2227    0.0000 O   0  0  0  0  0  0  0  0  0  0  0  0
    2.8566   -3.2908    0.0000 C   0  0  0  0  0  0  0  0  0  0  0  0
    2.1368   -3.7136    0.0000 C   0  0  0  0  0  0  0  0  0  0  0  0
    2.1368   -4.5363    0.0000 C   0  0  0  0  0  0  0  0  0  0  0  0
    2.8566   -4.9477    0.0000 N   0  0  0  0  0  0  0  0  0  0  0  0
    3.5651   -4.5363    0.0000 C   0  0  0  0  0  0  0  0  0  0  0  0
    3.5651   -3.7136    0.0000 C   0  0  0  0  0  0  0  0  0  0  0  0
    1.4169   -4.9477    0.0000 C   0  0  0  0  0  0  0  0  0  0  0  0
    4.2735   -4.9477    0.0000 C   0  0  0  0  0  0  0  0  0  0  0  0
    1.4169   -3.2908    0.0000 C   0  0  0  0  0  0  0  0  0  0  0  0
    0.7084   -3.7136    0.0000 O   0  0  0  0  0  0  0  0  0  0  0  0
    0.0000   -3.2908    0.0000 C   0  0  0  0  0  0  0  0  0  0  0  0
    1.4169   -2.4795    0.0000 O   0  0  0  0  0  0  0  0  0  0  0  0
    4.2735   -3.2680    0.0000 C   0  0  0  0  0  0  0  0  0  0  0  0
    4.2735   -2.4453    0.0000 O   0  0  0  0  0  0  0  0  0  0  0  0
    4.9934   -3.6794    0.0000 O   0  0  0  0  0  0  0  0  0  0  0  0
    5.7019   -3.2680    0.0000 C   0  0  0  0  0  0  0  0  0  0  0  0
    5.2905   -2.5481    0.0000 C   0  0  0  0  0  0  0  0  0  0  0  0
    6.1017   -2.5481    0.0000 C   0  0  0  0  0  0  0  0  0  0  0  0
    6.4103   -3.6679    0.0000 C   0  0  0  0  0  0  0  0  0  0  0  0
    7.1301   -3.2680    0.0000 N   0  0  0  0  0  0  0  0  0  0  0  0
    7.1301   -2.4224    0.0000 C   0  0  0  0  0  0  0  0  0  0  0  0
    7.8386   -3.6679    0.0000 C   0  0  0  0  0  0  0  0  0  0  0  0
    8.5585   -3.2452    0.0000 C   0  0  0  0  0  0  0  0  0  0  0  0
    9.2783   -3.6565    0.0000 C   0  0  0  0  0  0  0  0  0  0  0  0
    9.9982   -3.2452    0.0000 C   0  0  0  0  0  0  0  0  0  0  0  0
    9.2783   -4.4906    0.0000 C   0  0  0  0  0  0  0  0  0  0  0  0
    9.9982   -2.4224    0.0000 C   0  0  0  0  0  0  0  0  0  0  0  0
   10.7181   -1.9996    0.0000 C   0  0  0  0  0  0  0  0  0  0  0  0
   11.4265   -2.4224    0.0000 C   0  0  0  0  0  0  0  0  0  0  0  0
   11.4265   -3.2452    0.0000 C   0  0  0  0  0  0  0  0  0  0  0  0
   10.7181   -3.6565    0.0000 C   0  0  0  0  0  0  0  0  0  0  0  0
    9.9982   -4.9020    0.0000 C   0  0  0  0  0  0  0  0  0  0  0  0
    9.9982   -5.7247    0.0000 C   0  0  0  0  0  0  0  0  0  0  0  0
    9.2783   -6.1475    0.0000 C   0  0  0  0  0  0  0  0  0  0  0  0
    8.5585   -5.7247    0.0000 C   0  0  0  0  0  0  0  0  0  0  0  0
    8.5585   -4.9020    0.0000 C   0  0  0  0  0  0  0  0  0  0  0  0
    6.5017   -4.5249    0.0000 Cl  0  0  0  0  0  0  0  0  0  0  0  0
  1  6  2  0
  1  2  1  0
  2  3  2  0
  3  4  1  0
  3 10  1  0
  4  5  2  0
  5  6  1  0
  5  7  1  0
  7  8  2  0
  7  9  1  0
 10 15  1  0
 10 11  1  0
 11 12  2  0
 11 18  1  0
 12 13  1  0
 12 16  1  0
 13 14  1  0
 14 15  2  0
 14 17  1  0
 15 22  1  0
 18 19  1  0
 18 21  2  0
 19 20  1  0
 22 23  2  0
 22 24  1  0
 24 25  1  0
 25 26  1  0
 25 27  1  0
 25 28  1  0
 28 29  1  0
 29 30  1  0
 29 31  1  0
 31 32  1  0
 32 33  1  0
 33 34  1  0
 33 35  1  0
 34 36  2  0
 34 40  1  0
 35 41  2  0
 35 45  1  0
 36 37  1  0
 37 38  2  0
 38 39  1  0
 39 40  2  0
 41 42  1  0
 42 43  2  0
 43 44  1  0
 44 45  2  0
M  CHG  2   7   1   9  -1
M  END
>  <Formula>  (169) 
C36H42ClN3O6

>  <FW>  (169) 
648.1882 (611.7272+36.4609)

>  <DSSTox_CID>  (169) 
26665

>  <NR-Aromatase>  (169) 
1

>  <NR-AR>  (169) 
0

>  <NR-AR-LBD>  (169) 
0

>  <NR-ER-LBD>  (169) 
0

>  <NR-PPAR-gamma>  (169) 
0

>  <NR-AhR>  (169) 
0

>  <SR-ATAD5>  (169) 
0

>  <SR-MMP>  (169) 
1

>  <SR-p53>  (169) 
0

$$$$
NCGC00014750-02
     RDKit          2D

 22 26  0  0  1  0  0  0  0  0999 V2000
    2.1111   -1.6353    0.0000 N   0  0  0  0  0  0  0  0  0  0  0  0
    2.8247   -1.2290    0.0000 C   0  0  0  0  0  0  0  0  0  0  0  0
    2.8247   -0.3964    0.0000 C   0  0  0  0  0  0  0  0  0  0  0  0
    2.1111   -2.4481    0.0000 C   0  0  0  0  0  0  0  0  0  0  0  0
    1.4272   -1.2290    0.0000 C   0  0  0  0  0  0  0  0  0  0  0  0
    3.5284   -1.6353    0.0000 C   0  0  0  0  0  0  0  0  0  0  0  0
    3.5284   -2.4481    0.0000 C   0  0  0  0  0  0  0  0  0  0  0  0
    1.4272   -0.3964    0.0000 C   0  0  0  0  0  0  0  0  0  0  0  0
    4.2519   -1.2290    0.0000 N   0  0  0  0  0  0  0  0  0  0  0  0
    2.8247   -2.8644    0.0000 C   0  0  0  0  0  0  0  0  0  0  0  0
    3.5284    0.0000    0.0000 C   0  0  0  0  0  0  0  0  0  0  0  0
    1.3975   -2.8941    0.0000 O   0  0  0  0  0  0  0  0  0  0  0  0
    4.2519   -0.3964    0.0000 C   0  0  0  0  0  0  0  0  0  0  0  0
    4.2519   -2.8644    0.0000 C   0  0  0  0  0  0  0  0  0  0  0  0
    3.5581   -3.3897    0.0000 C   0  0  0  0  0  0  0  0  0  0  0  0
    0.7037   -1.6353    0.0000 C   0  0  0  0  0  0  0  0  0  0  0  0
    4.9557   -1.6353    0.0000 C   0  0  0  0  0  0  0  0  0  0  0  0
    0.7037    0.0000    0.0000 C   0  0  0  0  0  0  0  0  0  0  0  0
    4.9557   -2.4481    0.0000 C   0  0  0  0  0  0  0  0  0  0  0  0
    4.2619   -3.8456    0.0000 C   0  0  0  0  0  0  0  0  0  0  0  0
    0.0000   -1.2290    0.0000 C   0  0  0  0  0  0  0  0  0  0  0  0
    0.0000   -0.3964    0.0000 C   0  0  0  0  0  0  0  0  0  0  0  0
  1  2  1  0
  1  4  1  0
  1  5  1  0
  2  3  2  0
  2  6  1  0
  3 11  1  0
  3  8  1  0
  4 10  1  0
  4 12  2  0
  5  8  2  0
  5 16  1  0
  6  9  1  1
  6  7  1  0
  7 10  1  0
  7 14  1  0
  7 15  1  6
  8 18  1  0
  9 13  1  0
  9 17  1  0
 11 13  1  0
 14 19  1  0
 15 20  1  0
 16 21  2  0
 17 19  1  0
 18 22  2  0
 21 22  1  0
M  END
>  <Formula>  (170) 
C19H22N2O

>  <FW>  (170) 
294.3908

>  <DSSTox_CID>  (170) 
25119

>  <NR-Aromatase>  (170) 
1

>  <NR-AR>  (170) 
0

>  <NR-AR-LBD>  (170) 
0

>  <NR-ER>  (170) 
0

>  <NR-PPAR-gamma>  (170) 
0

>  <NR-AhR>  (170) 
0

>  <SR-ATAD5>  (170) 
0

>  <SR-MMP>  (170) 
0

>  <SR-p53>  (170) 
1

$$$$
NCGC00254070-01
     RDKit          2D

 31 34  0  0  0  0  0  0  0  0999 V2000
    3.1406   -3.7865    0.0000 N   0  0  0  0  0  0  0  0  0  0  0  0
    3.8026   -3.2940    0.0000 C   0  0  0  0  0  0  0  0  0  0  0  0
    3.3828   -4.5696    0.0000 N   0  0  0  0  0  0  0  0  0  0  0  0
    4.4727   -3.7865    0.0000 C   0  0  0  0  0  0  0  0  0  0  0  0
    4.2144   -4.5696    0.0000 C   0  0  0  0  0  0  0  0  0  0  0  0
    3.8026   -2.4705    0.0000 C   0  0  0  0  0  0  0  0  0  0  0  0
    3.0922   -2.0668    0.0000 C   0  0  0  0  0  0  0  0  0  0  0  0
    4.5212   -2.0668    0.0000 C   0  0  0  0  0  0  0  0  0  0  0  0
    3.0922   -1.2434    0.0000 C   0  0  0  0  0  0  0  0  0  0  0  0
    4.5212   -1.2434    0.0000 C   0  0  0  0  0  0  0  0  0  0  0  0
    3.8026   -0.8235    0.0000 C   0  0  0  0  0  0  0  0  0  0  0  0
    2.3575   -3.5282    0.0000 C   0  0  0  0  0  0  0  0  0  0  0  0
    1.7358   -4.0852    0.0000 C   0  0  0  0  0  0  0  0  0  0  0  0
    2.1879   -2.7208    0.0000 C   0  0  0  0  0  0  0  0  0  0  0  0
    0.9527   -3.8269    0.0000 C   0  0  0  0  0  0  0  0  0  0  0  0
    1.3967   -2.4624    0.0000 C   0  0  0  0  0  0  0  0  0  0  0  0
    0.7831   -3.0195    0.0000 C   0  0  0  0  0  0  0  0  0  0  0  0
    3.8026    0.0000    0.0000 Br  0  0  0  0  0  0  0  0  0  0  0  0
    0.0000   -2.7612    0.0000 Cl  0  0  0  0  0  0  0  0  0  0  0  0
    1.9054   -4.8845    0.0000 Cl  0  0  0  0  0  0  0  0  0  0  0  0
    5.2559   -3.5282    0.0000 C   0  0  0  0  0  0  0  0  0  0  0  0
    5.8694   -4.0852    0.0000 C   0  0  0  0  0  0  0  0  0  0  0  0
    4.6988   -5.2317    0.0000 C   0  0  0  0  0  0  0  0  0  0  0  0
    4.3597   -5.9906    0.0000 N   0  0  0  0  0  0  0  0  0  0  0  0
    5.5223   -5.1429    0.0000 O   0  0  0  0  0  0  0  0  0  0  0  0
    4.8441   -6.6526    0.0000 N   0  0  0  0  0  0  0  0  0  0  0  0
    5.6676   -6.5638    0.0000 C   0  0  0  0  0  0  0  0  0  0  0  0
    4.5050   -7.4115    0.0000 C   0  0  0  0  0  0  0  0  0  0  0  0
    6.1440   -7.2419    0.0000 C   0  0  0  0  0  0  0  0  0  0  0  0
    4.9975   -8.0735    0.0000 C   0  0  0  0  0  0  0  0  0  0  0  0
    5.8210   -7.9847    0.0000 C   0  0  0  0  0  0  0  0  0  0  0  0
  1  2  1  0
  1  3  1  0
  1 12  1  0
  2  4  2  0
  2  6  1  0
  3  5  2  0
  4  5  1  0
  4 21  1  0
  5 23  1  0
  6  7  2  0
  6  8  1  0
  7  9  1  0
  8 10  2  0
  9 11  2  0
 10 11  1  0
 11 18  1  0
 12 13  2  0
 12 14  1  0
 13 15  1  0
 13 20  1  0
 14 16  2  0
 15 17  2  0
 16 17  1  0
 17 19  1  0
 21 22  1  0
 23 24  1  0
 23 25  2  0
 24 26  1  0
 26 27  1  0
 26 28  1  0
 27 29  1  0
 28 30  1  0
 29 31  1  0
 30 31  1  0
M  END
>  <Formula>  (171) 
C23H23BrCl2N4O

>  <FW>  (171) 
522.2649

>  <DSSTox_CID>  (171) 
27357

>  <NR-Aromatase>  (171) 
1

>  <NR-AR>  (171) 
0

>  <NR-ER>  (171) 
1

>  <NR-ER-LBD>  (171) 
0

>  <NR-AhR>  (171) 
0

>  <SR-ARE>  (171) 
1

>  <SR-ATAD5>  (171) 
0

>  <SR-HSE>  (171) 
0

>  <SR-MMP>  (171) 
1

$$$$
NCGC00015748-11
     RDKit          2D

 25 26  0  0  0  0  0  0  0  0999 V2000
    4.8691   -3.6988    0.0000 C   0  0  0  0  0  0  0  0  0  0  0  0
    4.1551   -4.1122    0.0000 O   0  0  0  0  0  0  0  0  0  0  0  0
    3.4518   -3.6988    0.0000 C   0  0  0  0  0  0  0  0  0  0  0  0
    2.7325   -4.1122    0.0000 O   0  0  0  0  0  0  0  0  0  0  0  0
    3.4518   -2.8828    0.0000 C   0  0  0  0  0  0  0  0  0  0  0  0
    4.1551   -2.4694    0.0000 C   0  0  0  0  0  0  0  0  0  0  0  0
    4.8691   -2.8828    0.0000 C   0  0  0  0  0  0  0  0  0  0  0  0
    4.1551   -1.6427    0.0000 N   0  0  0  0  0  0  0  0  0  0  0  0
    3.4518   -1.2293    0.0000 C   0  0  0  0  0  0  0  0  0  0  0  0
    2.7325   -1.6427    0.0000 C   0  0  0  0  0  0  0  0  0  0  0  0
    2.7325   -2.4694    0.0000 C   0  0  0  0  0  0  0  0  0  0  0  0
    1.5461   -3.2156    0.0000 C   0  0  0  0  0  0  0  0  0  0  0  0
    0.9233   -2.6788    0.0000 C   0  0  0  0  0  0  0  0  0  0  0  0
    0.1503   -2.9687    0.0000 C   0  0  0  0  0  0  0  0  0  0  0  0
    0.0000   -3.7685    0.0000 C   0  0  0  0  0  0  0  0  0  0  0  0
    0.6227   -4.3054    0.0000 C   0  0  0  0  0  0  0  0  0  0  0  0
    1.4065   -4.0155    0.0000 C   0  0  0  0  0  0  0  0  0  0  0  0
    1.7125   -4.6382    0.0000 N   0  0  0  0  0  0  0  0  0  0  0  0
    2.6090   -5.0784    0.0000 O   0  0  0  0  0  0  0  0  0  0  0  0
    1.2401   -5.3683    0.0000 O   0  0  0  0  0  0  0  0  0  0  0  0
    2.0132   -1.2293    0.0000 C   0  0  0  0  0  0  0  0  0  0  0  0
    1.3099   -1.6427    0.0000 O   0  0  0  0  0  0  0  0  0  0  0  0
    2.0132   -0.4133    0.0000 O   0  0  0  0  0  0  0  0  0  0  0  0
    2.7325    0.0000    0.0000 C   0  0  0  0  0  0  0  0  0  0  0  0
    3.4518   -0.4133    0.0000 C   0  0  0  0  0  0  0  0  0  0  0  0
  1  2  1  0
  2  3  1  0
  3  4  2  0
  3  5  1  0
  5  6  2  0
  5 11  1  0
  6  7  1  0
  6  8  1  0
  8  9  1  0
  9 10  2  0
  9 25  1  0
 10 11  1  0
 10 21  1  0
 11 12  1  0
 12 13  2  0
 12 17  1  0
 13 14  1  0
 14 15  2  0
 15 16  1  0
 16 17  2  0
 17 18  1  0
 18 19  2  0
 18 20  1  0
 21 22  2  0
 21 23  1  0
 23 24  1  0
M  CHG  2  18   1  20  -1
M  END
>  <Formula>  (172) 
C17H18N2O6

>  <FW>  (172) 
346.3346

>  <DSSTox_CID>  (172) 
5715

>  <NR-Aromatase>  (172) 
1

>  <NR-AR>  (172) 
0

>  <NR-AR-LBD>  (172) 
0

>  <NR-ER>  (172) 
0

>  <NR-PPAR-gamma>  (172) 
0

>  <NR-AhR>  (172) 
1

>  <SR-ATAD5>  (172) 
0

>  <SR-MMP>  (172) 
0

>  <SR-p53>  (172) 
0

$$$$
NCGC00260032-01
     RDKit          2D

 40 43  0  0  1  0  0  0  0  0999 V2000
    2.0995   -6.7060    0.0000 O   0  0  0  0  0  0  0  0  0  0  0  0
    2.3816   -5.9304    0.0000 C   0  0  0  0  0  0  0  0  0  0  0  0
    1.8567   -5.3115    0.0000 C   0  0  0  0  0  0  0  0  0  0  0  0
    1.0420   -5.4447    0.0000 O   0  0  0  0  0  0  0  0  0  0  0  0
    2.1387   -4.5281    0.0000 C   0  0  0  0  0  0  0  0  0  0  0  0
    1.3318   -4.3871    0.0000 O   0  0  0  0  0  0  0  0  0  0  0  0
    2.1387   -3.6977    0.0000 C   0  0  0  0  0  0  0  0  0  0  0  0
    2.8594   -3.2982    0.0000 C   0  0  0  0  0  0  0  0  0  0  0  0
    2.8594   -2.4677    0.0000 O   0  0  0  0  0  0  0  0  0  0  0  0
    2.1387   -2.0525    0.0000 C   0  0  0  0  0  0  0  0  0  0  0  0
    1.4258   -2.4677    0.0000 C   0  0  0  0  0  0  0  0  0  0  0  0
    0.7129   -2.0525    0.0000 C   0  0  0  0  0  0  0  0  0  0  0  0
    0.0000   -2.4677    0.0000 N   0  0  0  0  0  0  0  0  0  0  0  0
    0.7129   -1.2300    0.0000 C   0  0  0  0  0  0  0  0  0  0  0  0
    0.0000   -0.8226    0.0000 O   0  0  0  0  0  0  0  0  0  0  0  0
    1.4258   -0.8226    0.0000 C   0  0  0  0  0  0  0  0  0  0  0  0
    1.4258    0.0000    0.0000 C   0  0  0  0  0  0  0  0  0  0  0  0
    2.1387   -1.2300    0.0000 O   0  0  0  0  0  0  0  0  0  0  0  0
    3.5724   -3.6977    0.0000 C   0  0  0  0  0  0  0  0  0  0  0  0
    4.2774   -3.2982    0.0000 C   0  0  0  0  0  0  0  0  0  0  0  0
    4.2774   -2.4677    0.0000 O   0  0  0  0  0  0  0  0  0  0  0  0
    4.9903   -3.6977    0.0000 C   0  0  0  0  0  0  0  0  0  0  0  0
    5.7032   -3.2982    0.0000 C   0  0  0  0  0  0  0  0  0  0  0  0
    5.7032   -2.4677    0.0000 O   0  0  0  0  0  0  0  0  0  0  0  0
    6.4161   -3.6977    0.0000 C   0  0  0  0  0  0  0  0  0  0  0  0
    7.1291   -3.2982    0.0000 C   0  0  0  0  0  0  0  0  0  0  0  0
    7.1291   -2.4677    0.0000 O   0  0  0  0  0  0  0  0  0  0  0  0
    7.8341   -2.0525    0.0000 C   0  0  0  0  0  0  0  0  0  0  0  0
    7.8341   -3.6977    0.0000 C   0  0  0  0  0  0  0  0  0  0  0  0
    7.8341   -4.5281    0.0000 C   0  0  0  0  0  0  0  0  0  0  0  0
    7.1291   -4.9433    0.0000 C   0  0  0  0  0  0  0  0  0  0  0  0
    6.4161   -4.5281    0.0000 C   0  0  0  0  0  0  0  0  0  0  0  0
    5.7032   -4.9433    0.0000 C   0  0  0  0  0  0  0  0  0  0  0  0
    5.7032   -5.7659    0.0000 O   0  0  0  0  0  0  0  0  0  0  0  0
    4.9903   -4.5281    0.0000 C   0  0  0  0  0  0  0  0  0  0  0  0
    4.2774   -4.9433    0.0000 C   0  0  0  0  0  0  0  0  0  0  0  0
    4.2774   -5.7659    0.0000 O   0  0  0  0  0  0  0  0  0  0  0  0
    3.5724   -4.5281    0.0000 C   0  0  0  0  0  0  0  0  0  0  0  0
    2.8594   -4.9433    0.0000 C   0  0  0  0  0  0  0  0  0  0  0  0
    5.9696   -0.3682    0.0000 Cl  0  0  0  0  0  0  0  0  0  0  0  0
  1  2  1  0
  2  3  1  0
  3  4  2  0
  5  3  1  0
  5  6  1  6
  5  7  1  0
  5 39  1  0
  7  8  1  0
  8  9  1  6
  8 19  1  0
 10  9  1  1
 10 11  1  0
 10 18  1  0
 11 12  1  0
 12 13  1  6
 12 14  1  0
 14 15  1  6
 14 16  1  0
 16 17  1  6
 16 18  1  0
 19 20  1  0
 19 38  2  0
 20 21  1  0
 20 22  2  0
 22 23  1  0
 22 35  1  0
 23 24  2  0
 23 25  1  0
 25 26  2  0
 25 32  1  0
 26 27  1  0
 26 29  1  0
 27 28  1  0
 29 30  2  0
 30 31  1  0
 31 32  2  0
 32 33  1  0
 33 34  2  0
 33 35  1  0
 35 36  2  0
 36 37  1  0
 36 38  1  0
 38 39  1  0
M  END
>  <Formula>  (173) 
C27H30ClNO11

>  <FW>  (173) 
579.9802 (543.5193+36.4609)

>  <DSSTox_CID>  (173) 
10636

>  <NR-Aromatase>  (173) 
1

>  <NR-AR>  (173) 
0

>  <NR-AR-LBD>  (173) 
1

>  <NR-ER-LBD>  (173) 
1

>  <NR-AhR>  (173) 
0

>  <SR-ATAD5>  (173) 
1

>  <SR-HSE>  (173) 
0

>  <SR-MMP>  (173) 
1

>  <SR-p53>  (173) 
1

$$$$
NCGC00181097-01
     RDKit          2D

 25 26  0  0  0  0  0  0  0  0999 V2000
    6.4451   -2.0689    0.0000 C   0  0  0  0  0  0  0  0  0  0  0  0
    5.7297   -2.4749    0.0000 O   0  0  0  0  0  0  0  0  0  0  0  0
    5.0143   -2.0689    0.0000 C   0  0  0  0  0  0  0  0  0  0  0  0
    4.2989   -2.4749    0.0000 C   0  0  0  0  0  0  0  0  0  0  0  0
    4.2989   -3.3128    0.0000 C   0  0  0  0  0  0  0  0  0  0  0  0
    5.0143   -3.7188    0.0000 N   0  0  0  0  0  0  0  0  0  0  0  0
    5.7297   -3.3128    0.0000 C   0  0  0  0  0  0  0  0  0  0  0  0
    5.0143   -4.5438    0.0000 C   0  0  0  0  0  0  0  0  0  0  0  0
    3.5835   -2.0689    0.0000 C   0  0  0  0  0  0  0  0  0  0  0  0
    3.5835   -1.2439    0.0000 C   0  0  0  0  0  0  0  0  0  0  0  0
    4.2989   -0.8250    0.0000 C   0  0  0  0  0  0  0  0  0  0  0  0
    5.0143   -1.2439    0.0000 C   0  0  0  0  0  0  0  0  0  0  0  0
    2.8616   -0.8250    0.0000 C   0  0  0  0  0  0  0  0  0  0  0  0
    2.8616    0.0000    0.0000 O   0  0  0  0  0  0  0  0  0  0  0  0
    2.1462   -1.2439    0.0000 C   0  0  0  0  0  0  0  0  0  0  0  0
    2.1462   -2.0689    0.0000 C   0  0  0  0  0  0  0  0  0  0  0  0
    2.8616   -2.4749    0.0000 O   0  0  0  0  0  0  0  0  0  0  0  0
    1.4308   -2.4749    0.0000 C   0  0  0  0  0  0  0  0  0  0  0  0
    1.4308   -3.3128    0.0000 C   0  0  0  0  0  0  0  0  0  0  0  0
    0.7154   -3.7188    0.0000 C   0  0  0  0  0  0  0  0  0  0  0  0
    0.0000   -3.3128    0.0000 C   0  0  0  0  0  0  0  0  0  0  0  0
    0.0000   -2.4749    0.0000 C   0  0  0  0  0  0  0  0  0  0  0  0
    0.7154   -2.0689    0.0000 C   0  0  0  0  0  0  0  0  0  0  0  0
    1.4308   -0.8250    0.0000 C   0  0  0  0  0  0  0  0  0  0  0  0
    3.0937   -3.3386    0.0000 Cl  0  0  0  0  0  0  0  0  0  0  0  0
  1  2  1  0
  2  3  1  0
  3  4  2  0
  3 12  1  0
  4  5  1  0
  4  9  1  0
  5  6  1  0
  6  7  1  0
  6  8  1  0
  9 10  2  0
  9 17  1  0
 10 11  1  0
 10 13  1  0
 11 12  2  0
 13 14  2  0
 13 15  1  0
 15 16  2  0
 15 24  1  0
 16 17  1  0
 16 18  1  0
 18 19  2  0
 18 23  1  0
 19 20  1  0
 20 21  2  0
 21 22  1  0
 22 23  2  0
M  END
>  <Formula>  (174) 
C20H22ClNO3

>  <FW>  (174) 
359.8466 (323.3856+36.4609)

>  <DSSTox_CID>  (174) 
26841

>  <NR-Aromatase>  (174) 
1

>  <NR-AR>  (174) 
0

>  <NR-AR-LBD>  (174) 
0

>  <NR-ER>  (174) 
0

>  <NR-ER-LBD>  (174) 
0

>  <NR-PPAR-gamma>  (174) 
0

>  <NR-AhR>  (174) 
1

>  <SR-ATAD5>  (174) 
0

>  <SR-MMP>  (174) 
0

>  <SR-p53>  (174) 
0

$$$$
NCGC00259784-01
     RDKit          2D

 24 26  0  0  1  0  0  0  0  0999 V2000
    4.0506   -0.7100    0.0000 O   0  0  0  0  0  0  0  0  0  0  0  0
    3.8004   -1.5012    0.0000 C   0  0  0  0  0  0  0  0  0  0  0  0
    3.0092   -1.7582    0.0000 C   0  0  0  0  0  0  0  0  0  0  0  0
    3.0092   -2.5832    0.0000 C   0  0  0  0  0  0  0  0  0  0  0  0
    3.8004   -2.8334    0.0000 O   0  0  0  0  0  0  0  0  0  0  0  0
    4.2805   -2.1639    0.0000 C   0  0  0  0  0  0  0  0  0  0  0  0
    4.6998   -1.4539    0.0000 C   0  0  0  0  0  0  0  0  0  0  0  0
    5.5248   -1.4539    0.0000 C   0  0  0  0  0  0  0  0  0  0  0  0
    5.9372   -2.1639    0.0000 C   0  0  0  0  0  0  0  0  0  0  0  0
    6.7622   -2.1639    0.0000 O   0  0  0  0  0  0  0  0  0  0  0  0
    5.5248   -2.8807    0.0000 C   0  0  0  0  0  0  0  0  0  0  0  0
    4.6998   -2.8807    0.0000 C   0  0  0  0  0  0  0  0  0  0  0  0
    4.2805   -3.6042    0.0000 C   0  0  0  0  0  0  0  0  0  0  0  0
    4.5510   -0.6357    0.0000 O   0  0  0  0  0  0  0  0  0  0  0  0
    5.1867   -0.1082    0.0000 C   0  0  0  0  0  0  0  0  0  0  0  0
    2.2992   -2.9957    0.0000 C   0  0  0  0  0  0  0  0  0  0  0  0
    2.2992   -3.8207    0.0000 Cl  0  0  0  0  0  0  0  0  0  0  0  0
    1.5756   -2.5832    0.0000 C   0  0  0  0  0  0  0  0  0  0  0  0
    0.8588   -2.9957    0.0000 O   0  0  0  0  0  0  0  0  0  0  0  0
    0.0000   -2.0354    0.0000 C   0  0  0  0  0  0  0  0  0  0  0  0
    1.5756   -1.7582    0.0000 C   0  0  0  0  0  0  0  0  0  0  0  0
    2.2992   -1.3389    0.0000 C   0  0  0  0  0  0  0  0  0  0  0  0
    2.2992   -0.5139    0.0000 O   0  0  0  0  0  0  0  0  0  0  0  0
    1.0617    0.0000    0.0000 C   0  0  0  0  0  0  0  0  0  0  0  0
  1  2  2  0
  2  3  1  0
  6  2  1  0
  3  4  2  0
  3 22  1  0
  4  5  1  0
  4 16  1  0
  6  5  1  6
  6  7  1  0
  6 12  1  0
  7  8  2  0
  7 14  1  0
  8  9  1  0
  9 10  2  0
  9 11  1  0
 11 12  1  0
 12 13  1  1
 14 15  1  0
 16 17  1  0
 16 18  2  0
 18 19  1  0
 18 21  1  0
 19 20  1  0
 21 22  2  0
 22 23  1  0
 23 24  1  0
M  END
>  <Formula>  (175) 
C17H17ClO6

>  <FW>  (175) 
352.7663

>  <DSSTox_CID>  (175) 
674

>  <NR-Aromatase>  (175) 
1

>  <NR-AR>  (175) 
0

>  <NR-AR-LBD>  (175) 
0

>  <NR-ER>  (175) 
0

>  <NR-ER-LBD>  (175) 
0

>  <NR-PPAR-gamma>  (175) 
1

>  <NR-AhR>  (175) 
0

>  <SR-ATAD5>  (175) 
1

>  <SR-HSE>  (175) 
0

>  <SR-MMP>  (175) 
0

>  <SR-p53>  (175) 
1

$$$$
NCGC00256353-01
     RDKit          2D

 24 26  0  0  1  0  0  0  0  0999 V2000
    4.0506   -0.7100    0.0000 O   0  0  0  0  0  0  0  0  0  0  0  0
    3.8004   -1.5012    0.0000 C   0  0  0  0  0  0  0  0  0  0  0  0
    3.0092   -1.7582    0.0000 C   0  0  0  0  0  0  0  0  0  0  0  0
    3.0092   -2.5832    0.0000 C   0  0  0  0  0  0  0  0  0  0  0  0
    3.8004   -2.8334    0.0000 O   0  0  0  0  0  0  0  0  0  0  0  0
    4.2805   -2.1639    0.0000 C   0  0  0  0  0  0  0  0  0  0  0  0
    4.6998   -1.4539    0.0000 C   0  0  0  0  0  0  0  0  0  0  0  0
    5.5248   -1.4539    0.0000 C   0  0  0  0  0  0  0  0  0  0  0  0
    5.9372   -2.1639    0.0000 C   0  0  0  0  0  0  0  0  0  0  0  0
    6.7622   -2.1639    0.0000 O   0  0  0  0  0  0  0  0  0  0  0  0
    5.5248   -2.8807    0.0000 C   0  0  0  0  0  0  0  0  0  0  0  0
    4.6998   -2.8807    0.0000 C   0  0  0  0  0  0  0  0  0  0  0  0
    4.2805   -3.6042    0.0000 C   0  0  0  0  0  0  0  0  0  0  0  0
    4.5510   -0.6357    0.0000 O   0  0  0  0  0  0  0  0  0  0  0  0
    5.1867   -0.1082    0.0000 C   0  0  0  0  0  0  0  0  0  0  0  0
    2.2992   -2.9957    0.0000 C   0  0  0  0  0  0  0  0  0  0  0  0
    2.2992   -3.8207    0.0000 Cl  0  0  0  0  0  0  0  0  0  0  0  0
    1.5756   -2.5832    0.0000 C   0  0  0  0  0  0  0  0  0  0  0  0
    0.8588   -2.9957    0.0000 O   0  0  0  0  0  0  0  0  0  0  0  0
    0.0000   -2.0354    0.0000 C   0  0  0  0  0  0  0  0  0  0  0  0
    1.5756   -1.7582    0.0000 C   0  0  0  0  0  0  0  0  0  0  0  0
    2.2992   -1.3389    0.0000 C   0  0  0  0  0  0  0  0  0  0  0  0
    2.2992   -0.5139    0.0000 O   0  0  0  0  0  0  0  0  0  0  0  0
    1.0617    0.0000    0.0000 C   0  0  0  0  0  0  0  0  0  0  0  0
  1  2  2  0
  2  3  1  0
  6  2  1  0
  3  4  2  0
  3 22  1  0
  4  5  1  0
  4 16  1  0
  6  5  1  6
  6  7  1  0
  6 12  1  0
  7  8  2  0
  7 14  1  0
  8  9  1  0
  9 10  2  0
  9 11  1  0
 11 12  1  0
 12 13  1  1
 14 15  1  0
 16 17  1  0
 16 18  2  0
 18 19  1  0
 18 21  1  0
 19 20  1  0
 21 22  2  0
 22 23  1  0
 23 24  1  0
M  END
>  <Formula>  (176) 
C17H17ClO6

>  <FW>  (176) 
352.7663

>  <DSSTox_CID>  (176) 
674

>  <NR-Aromatase>  (176) 
1

>  <NR-AR>  (176) 
0

>  <NR-AR-LBD>  (176) 
0

>  <NR-ER>  (176) 
0

>  <NR-ER-LBD>  (176) 
0

>  <NR-PPAR-gamma>  (176) 
0

>  <SR-ATAD5>  (176) 
1

>  <SR-HSE>  (176) 
0

>  <SR-MMP>  (176) 
0

>  <SR-p53>  (176) 
1

$$$$
NCGC00257268-01
     RDKit          2D

 48 53  0  0  1  0  0  0  0  0999 V2000
    2.1450   -4.1964    0.0000 C   0  0  0  0  0  0  0  0  0  0  0  0
    2.1450   -5.8422    0.0000 C   0  0  0  0  0  0  0  0  0  0  0  0
    1.9344   -6.6300    0.0000 C   0  0  0  0  0  0  0  0  0  0  0  0
    3.5646   -1.7316    0.0000 N   0  0  0  0  0  0  0  0  0  0  0  0
    1.4196   -5.4210    0.0000 C   0  0  0  0  0  0  0  0  0  0  0  0
    1.4196   -4.6098    0.0000 C   0  0  0  0  0  0  0  0  0  0  0  0
    2.8548   -4.6098    0.0000 C   0  0  0  0  0  0  0  0  0  0  0  0
    2.1450   -3.3696    0.0000 C   0  0  0  0  0  0  0  0  0  0  0  0
    0.9282   -6.6300    0.0000 N   0  0  0  0  0  0  0  0  0  0  0  0
    2.8548   -2.9640    0.0000 C   0  0  0  0  0  0  0  0  0  0  0  0
    3.5646   -4.1964    0.0000 N   0  0  0  0  0  0  0  0  0  0  0  0
    2.8548   -2.1372    0.0000 C   0  0  0  0  0  0  0  0  0  0  0  0
    0.7254   -5.8422    0.0000 C   0  0  0  0  0  0  0  0  0  0  0  0
    2.8548   -5.4210    0.0000 C   0  0  0  0  0  0  0  0  0  0  0  0
    3.5646   -3.3696    0.0000 C   0  0  0  0  0  0  0  0  0  0  0  0
    2.1450   -1.7316    0.0000 O   0  0  0  0  0  0  0  0  0  0  0  0
    2.4804   -7.2384    0.0000 Br  0  0  0  0  0  0  0  0  0  0  0  0
    0.7254   -4.1964    0.0000 C   0  0  0  0  0  0  0  0  0  0  0  0
    4.2744   -4.6098    0.0000 C   0  0  0  0  0  0  0  0  0  0  0  0
    0.0000   -5.4210    0.0000 C   0  0  0  0  0  0  0  0  0  0  0  0
    0.0000   -4.6098    0.0000 C   0  0  0  0  0  0  0  0  0  0  0  0
    5.6550   -2.1372    0.0000 N   0  0  0  0  0  0  0  0  0  0  0  0
    5.6550   -1.3104    0.0000 C   0  0  0  0  0  0  0  0  0  0  0  0
    4.3914   -1.7238    0.0000 C   0  0  0  0  0  0  0  0  0  0  0  0
    4.8672   -2.3946    0.0000 C   0  0  0  0  0  0  0  0  0  0  0  0
    4.8672   -1.0530    0.0000 O   0  0  0  0  0  0  0  0  0  0  0  0
    6.3804   -2.5506    0.0000 C   0  0  0  0  0  0  0  0  0  0  0  0
    7.0746   -2.1372    0.0000 C   0  0  0  0  0  0  0  0  0  0  0  0
    7.0746   -1.3104    0.0000 N   0  0  0  0  0  0  0  0  0  0  0  0
    6.3804   -0.9048    0.0000 C   0  0  0  0  0  0  0  0  0  0  0  0
    4.6254   -3.1746    0.0000 O   0  0  0  0  0  0  0  0  0  0  0  0
    7.8000   -2.5506    0.0000 O   0  0  0  0  0  0  0  0  0  0  0  0
    5.6940   -0.4602    0.0000 O   0  0  0  0  0  0  0  0  0  0  0  0
    6.3804   -3.3618    0.0000 C   0  0  0  0  0  0  0  0  0  0  0  0
    3.9702   -1.0218    0.0000 C   0  0  0  0  0  0  0  0  0  0  0  0
    7.6986   -0.7644    0.0000 C   0  0  0  0  0  0  0  0  0  0  0  0
    6.5286   -0.0936    0.0000 C   0  0  0  0  0  0  0  0  0  0  0  0
    7.3554    0.0000    0.0000 C   0  0  0  0  0  0  0  0  0  0  0  0
    7.0746   -3.7830    0.0000 C   0  0  0  0  0  0  0  0  0  0  0  0
    4.3680   -0.2886    0.0000 C   0  0  0  0  0  0  0  0  0  0  0  0
    3.1278   -1.0296    0.0000 C   0  0  0  0  0  0  0  0  0  0  0  0
    7.0746   -4.6098    0.0000 C   0  0  0  0  0  0  0  0  0  0  0  0
    7.8000   -3.3618    0.0000 C   0  0  0  0  0  0  0  0  0  0  0  0
    5.1012   -6.1932    0.0000 C   0  0  0  0  0  0  0  0  0  0  0  0
    5.9280   -6.1932    0.0000 S   0  0  0  0  0  0  0  0  0  0  0  0
    5.9280   -5.3664    0.0000 O   0  0  0  0  0  0  0  0  0  0  0  0
    5.9280   -7.0200    0.0000 O   0  0  0  0  0  0  0  0  0  0  0  0
    6.7548   -6.1932    0.0000 O   0  0  0  0  0  0  0  0  0  0  0  0
  1  8  2  0
  1  6  1  0
  1  7  1  0
  2 14  1  0
  2  3  2  0
  2  5  1  0
  3 17  1  0
  3  9  1  0
  4 12  1  0
 24  4  1  6
  5  6  2  0
  5 13  1  0
  6 18  1  0
  7 11  1  0
  7 14  1  6
  8 10  1  0
  9 13  1  0
 10 12  1  1
 10 15  1  0
 11 15  1  0
 11 19  1  0
 12 16  2  0
 13 20  2  0
 18 21  2  0
 20 21  1  0
 22 23  1  0
 22 25  1  0
 22 27  1  0
 23 26  1  0
 23 30  1  0
 23 33  1  6
 24 25  1  0
 24 35  1  0
 24 26  1  0
 25 31  2  0
 27 28  1  0
 27 34  1  6
 28 29  1  0
 28 32  2  0
 29 36  1  0
 29 30  1  0
 30 37  1  6
 34 39  1  0
 35 40  1  0
 35 41  1  0
 36 38  1  0
 37 38  1  0
 39 42  1  0
 39 43  1  0
 44 45  1  0
 45 46  2  0
 45 47  2  0
 45 48  1  0
M  END
>  <Formula>  (177) 
C33H44BrN5O8S

>  <FW>  (177) 
750.7002 (654.5945+96.1057)

>  <DSSTox_CID>  (177) 
197

>  <NR-Aromatase>  (177) 
1

>  <NR-AR>  (177) 
0

>  <NR-AR-LBD>  (177) 
0

>  <NR-ER>  (177) 
0

>  <NR-ER-LBD>  (177) 
0

>  <NR-AhR>  (177) 
0

>  <SR-ARE>  (177) 
1

>  <SR-HSE>  (177) 
0

>  <SR-MMP>  (177) 
1

>  <SR-p53>  (177) 
0

$$$$
NCGC00254896-01
     RDKit          2D

 26 27  0  0  0  0  0  0  0  0999 V2000
    2.4989   -1.6511    0.0000 N   0  0  0  0  0  0  0  0  0  0  0  0
    3.2129   -1.2227    0.0000 C   0  0  0  0  0  0  0  0  0  0  0  0
    1.7136   -1.3833    0.0000 C   0  0  0  0  0  0  0  0  0  0  0  0
    2.4989   -2.4722    0.0000 N   0  0  0  0  0  0  0  0  0  0  0  0
    3.9269   -1.6511    0.0000 C   0  0  0  0  0  0  0  0  0  0  0  0
    3.2129   -0.4016    0.0000 C   0  0  0  0  0  0  0  0  0  0  0  0
    1.2227   -2.0438    0.0000 N   0  0  0  0  0  0  0  0  0  0  0  0
    1.4636   -0.5979    0.0000 O   0  0  0  0  0  0  0  0  0  0  0  0
    1.7136   -2.7310    0.0000 C   0  0  0  0  0  0  0  0  0  0  0  0
    4.6409   -1.2227    0.0000 C   0  0  0  0  0  0  0  0  0  0  0  0
    3.9269    0.0000    0.0000 C   0  0  0  0  0  0  0  0  0  0  0  0
    2.4989    0.0000    0.0000 F   0  0  0  0  0  0  0  0  0  0  0  0
    0.4016   -2.0438    0.0000 C   0  0  0  0  0  0  0  0  0  0  0  0
    1.4636   -3.4985    0.0000 C   0  0  0  0  0  0  0  0  0  0  0  0
    4.6409   -0.4016    0.0000 C   0  0  0  0  0  0  0  0  0  0  0  0
    5.3460   -1.6511    0.0000 C   0  0  0  0  0  0  0  0  0  0  0  0
    0.0000   -1.3387    0.0000 F   0  0  0  0  0  0  0  0  0  0  0  0
    0.0000   -2.7667    0.0000 F   0  0  0  0  0  0  0  0  0  0  0  0
    5.3460    0.0000    0.0000 Cl  0  0  0  0  0  0  0  0  0  0  0  0
    6.0689   -1.2227    0.0000 C   0  0  0  0  0  0  0  0  0  0  0  0
    6.7739   -1.6511    0.0000 C   0  0  0  0  0  0  0  0  0  0  0  0
    6.0689   -0.4016    0.0000 Cl  0  0  0  0  0  0  0  0  0  0  0  0
    7.4969   -1.2227    0.0000 O   0  0  0  0  0  0  0  0  0  0  0  0
    6.7739   -2.4722    0.0000 O   0  0  0  0  0  0  0  0  0  0  0  0
    8.2019   -1.6511    0.0000 C   0  0  0  0  0  0  0  0  0  0  0  0
    8.9248   -1.2227    0.0000 C   0  0  0  0  0  0  0  0  0  0  0  0
  1  2  1  0
  1  3  1  0
  1  4  1  0
  2  5  2  0
  2  6  1  0
  3  7  1  0
  3  8  2  0
  4  9  2  0
  5 10  1  0
  6 11  2  0
  6 12  1  0
  7 13  1  0
  7  9  1  0
  9 14  1  0
 10 15  2  0
 10 16  1  0
 11 15  1  0
 13 17  1  0
 13 18  1  0
 15 19  1  0
 16 20  1  0
 20 21  1  0
 20 22  1  0
 21 23  1  0
 21 24  2  0
 23 25  1  0
 25 26  1  0
M  END
>  <Formula>  (178) 
C15H14Cl2F3N3O3

>  <FW>  (178) 
412.1912

>  <DSSTox_CID>  (178) 
12532

>  <NR-Aromatase>  (178) 
1

>  <NR-AR>  (178) 
0

>  <NR-AR-LBD>  (178) 
0

>  <NR-ER-LBD>  (178) 
0

>  <NR-PPAR-gamma>  (178) 
0

>  <NR-AhR>  (178) 
0

>  <SR-ATAD5>  (178) 
0

>  <SR-HSE>  (178) 
0

>  <SR-MMP>  (178) 
0

>  <SR-p53>  (178) 
0

$$$$
NCGC00164625-02
     RDKit          2D

 34 34  0  0  1  0  0  0  0  0999 V2000
    0.0000   -2.6276    0.0000 Na  0  0  0  0  0 15  0  0  0  0  0  0
    8.2707   -5.7691    0.0000 C   0  0  0  0  0  0  0  0  0  0  0  0
    8.2707   -4.9449    0.0000 C   0  0  0  0  0  0  0  0  0  0  0  0
    8.9785   -4.5378    0.0000 C   0  0  0  0  0  0  0  0  0  0  0  0
    7.5532   -4.5378    0.0000 C   0  0  0  0  0  0  0  0  0  0  0  0
    6.8454   -4.9449    0.0000 N   0  0  0  0  0  0  0  0  0  0  0  0
    6.1279   -4.5378    0.0000 C   0  0  0  0  0  0  0  0  0  0  0  0
    6.1279   -3.7039    0.0000 C   0  0  0  0  0  0  0  0  0  0  0  0
    5.4104   -3.2966    0.0000 C   0  0  0  0  0  0  0  0  0  0  0  0
    4.7026   -3.7039    0.0000 C   0  0  0  0  0  0  0  0  0  0  0  0
    3.9850   -3.2966    0.0000 C   0  0  0  0  0  0  0  0  0  0  0  0
    3.9850   -2.4822    0.0000 O   0  0  0  0  0  0  0  0  0  0  0  0
    3.2676   -3.7039    0.0000 C   0  0  0  0  0  0  0  0  0  0  0  0
    2.5597   -3.2966    0.0000 C   0  0  0  0  0  0  0  0  0  0  0  0
    2.5597   -2.4822    0.0000 O   0  0  0  0  0  0  0  0  0  0  0  0
    1.8423   -3.7039    0.0000 C   0  0  0  0  0  0  0  0  0  0  0  0
    1.1344   -3.2966    0.0000 C   0  0  0  0  0  0  0  0  0  0  0  0
    0.4169   -3.7039    0.0000 O   0  0  0  0  0  0  0  0  0  0  0  0
    1.1344   -2.4822    0.0000 O   0  0  0  0  0  0  0  0  0  0  0  0
    6.8454   -3.2966    0.0000 C   0  0  0  0  0  0  0  0  0  0  0  0
    7.5532   -3.7039    0.0000 C   0  0  0  0  0  0  0  0  0  0  0  0
    8.2707   -3.2966    0.0000 C   0  0  0  0  0  0  0  0  0  0  0  0
    8.9785   -3.7039    0.0000 O   0  0  0  0  0  0  0  0  0  0  0  0
    9.6960   -3.2966    0.0000 C   0  0  0  0  0  0  0  0  0  0  0  0
    6.8454   -2.4822    0.0000 C   0  0  0  0  0  0  0  0  0  0  0  0
    6.1279   -2.0653    0.0000 C   0  0  0  0  0  0  0  0  0  0  0  0
    6.1279   -1.2314    0.0000 C   0  0  0  0  0  0  0  0  0  0  0  0
    6.8454   -0.8242    0.0000 C   0  0  0  0  0  0  0  0  0  0  0  0
    6.8454    0.0000    0.0000 F   0  0  0  0  0  0  0  0  0  0  0  0
    7.5532   -1.2314    0.0000 C   0  0  0  0  0  0  0  0  0  0  0  0
    7.5532   -2.0653    0.0000 C   0  0  0  0  0  0  0  0  0  0  0  0
    5.4104   -4.9449    0.0000 C   0  0  0  0  0  0  0  0  0  0  0  0
    5.4104   -5.7691    0.0000 C   0  0  0  0  0  0  0  0  0  0  0  0
    4.7026   -4.5378    0.0000 C   0  0  0  0  0  0  0  0  0  0  0  0
  2  3  1  0
  3  4  1  0
  3  5  1  0
  5  6  2  0
  5 21  1  0
  6  7  1  0
  7  8  2  0
  7 32  1  0
  8  9  1  0
  8 20  1  0
  9 10  2  0
 10 11  1  0
 11 12  1  6
 11 13  1  0
 13 14  1  0
 14 15  1  6
 14 16  1  0
 16 17  1  0
 17 18  1  0
 17 19  2  0
 20 21  2  0
 20 25  1  0
 21 22  1  0
 22 23  1  0
 23 24  1  0
 25 26  2  0
 25 31  1  0
 26 27  1  0
 27 28  2  0
 28 29  1  0
 28 30  1  0
 30 31  2  0
 32 33  1  0
 32 34  1  0
M  CHG  2   1   1  18  -1
M  END
>  <Formula>  (179) 
C26H33FNNaO5

>  <FW>  (179) 
481.5321 (22.9892+458.5429)

>  <DSSTox_CID>  (179) 
26488

>  <NR-Aromatase>  (179) 
1

>  <NR-AR>  (179) 
1

>  <NR-ER>  (179) 
1

>  <NR-AhR>  (179) 
0

>  <SR-ATAD5>  (179) 
0

>  <SR-p53>  (179) 
0

$$$$
NCGC00167508-01
     RDKit          2D

 32 36  0  0  1  0  0  0  0  0999 V2000
    5.0988   -2.8292    0.0000 C   0  0  0  0  0  0  0  0  0  0  0  0
    4.3157   -3.0929    0.0000 C   0  0  0  0  0  0  0  0  0  0  0  0
    4.3157   -3.9400    0.0000 C   0  0  0  0  0  0  0  0  0  0  0  0
    2.1578   -4.3316    0.0000 C   0  0  0  0  0  0  0  0  0  0  0  0
    5.5863   -2.1658    0.0000 N   0  0  0  0  0  0  0  0  0  0  0  0
    3.6124   -4.3396    0.0000 C   0  0  0  0  0  0  0  0  0  0  0  0
    5.5624   -3.5165    0.0000 C   0  0  0  0  0  0  0  0  0  0  0  0
    2.8771   -3.9320    0.0000 C   0  0  0  0  0  0  0  0  0  0  0  0
    2.1578   -5.1548    0.0000 C   0  0  0  0  0  0  0  0  0  0  0  0
    3.6124   -2.6773    0.0000 C   0  0  0  0  0  0  0  0  0  0  0  0
    2.8771   -3.0929    0.0000 C   0  0  0  0  0  0  0  0  0  0  0  0
    1.4545   -3.9320    0.0000 C   0  0  0  0  0  0  0  0  0  0  0  0
    6.3616   -3.2607    0.0000 O   0  0  0  0  0  0  0  0  0  0  0  0
    5.0988   -4.1878    0.0000 C   0  0  0  0  0  0  0  0  0  0  0  0
    6.3616   -2.4295    0.0000 C   0  0  0  0  0  0  0  0  0  0  0  0
    5.0988   -1.3586    0.0000 C   0  0  0  0  0  0  0  0  0  0  0  0
    1.4545   -5.5624    0.0000 C   0  0  0  0  0  0  0  0  0  0  0  0
    3.6124   -5.1548    0.0000 C   0  0  0  0  0  0  0  0  0  0  0  0
    0.7433   -4.3396    0.0000 C   0  0  0  0  0  0  0  0  0  0  0  0
    0.7433   -5.1548    0.0000 C   0  0  0  0  0  0  0  0  0  0  0  0
    2.8771   -5.5624    0.0000 C   0  0  0  0  0  0  0  0  0  0  0  0
    7.2487   -0.8231    0.0000 C   0  0  0  0  0  0  0  0  0  0  0  0
    5.7702   -0.9351    0.0000 C   0  0  0  0  0  0  0  0  0  0  0  0
    4.4276   -0.9351    0.0000 O   0  0  0  0  0  0  0  0  0  0  0  0
    6.5055   -1.3347    0.0000 O   0  0  0  0  0  0  0  0  0  0  0  0
    7.2487    0.0000    0.0000 O   0  0  0  0  0  0  0  0  0  0  0  0
    0.0000   -5.5544    0.0000 O   0  0  0  0  0  0  0  0  0  0  0  0
    4.3157   -2.2617    0.0000 C   0  0  0  0  0  0  0  0  0  0  0  0
    2.1578   -2.6773    0.0000 O   0  0  0  0  0  0  0  0  0  0  0  0
    2.1578   -3.4845    0.0000 C   0  0  0  0  0  0  0  0  0  0  0  0
    7.0329   -1.9500    0.0000 C   0  0  0  0  0  0  0  0  0  0  0  0
    7.9919   -1.1908    0.0000 C   0  0  0  0  0  0  0  0  0  0  0  0
  1  2  1  0
  1  5  1  0
  1  7  1  0
  1 16  1  1
  2  3  1  0
  2 10  1  0
  2 28  1  1
  3  6  1  0
  3 14  1  1
  4  8  1  0
  4  9  1  0
  4 12  1  0
  4 30  1  1
  5 15  2  0
  6 18  1  6
  6  8  1  0
  7 13  1  0
  7 14  1  6
  8 11  1  1
  9 17  2  0
  9 21  1  0
 10 11  1  0
 11 29  1  1
 12 19  2  0
 13 15  1  0
 15 31  1  0
 16 23  1  0
 16 24  2  0
 17 20  1  0
 18 21  1  0
 19 20  1  0
 20 27  2  0
 22 25  1  0
 22 26  2  0
 22 32  1  0
 23 25  1  0
M  END
>  <Formula>  (180) 
C25H31NO6

>  <FW>  (180) 
441.5167

>  <DSSTox_CID>  (180) 
378

>  <NR-AR>  (180) 
1

>  <NR-AR-LBD>  (180) 
0

>  <NR-ER>  (180) 
1

>  <NR-PPAR-gamma>  (180) 
0

>  <SR-p53>  (180) 
0

$$$$
NCGC00183024-01
     RDKit          2D

 60 64  0  0  0  0  0  0  0  0999 V2000
    3.5853   -6.2074    0.0000 N   0  0  0  0  0  0  0  0  0  0  0  0
    4.2916   -6.6034    0.0000 C   0  0  0  0  0  0  0  0  0  0  0  0
    4.2916   -7.4275    0.0000 C   0  0  0  0  0  0  0  0  0  0  0  0
    2.8790   -6.6034    0.0000 C   0  0  0  0  0  0  0  0  0  0  0  0
    2.8790   -7.4275    0.0000 C   0  0  0  0  0  0  0  0  0  0  0  0
    3.5853   -5.3405    0.0000 C   0  0  0  0  0  0  0  0  0  0  0  0
    7.1171   -2.4722    0.0000 C   0  0  0  0  0  0  0  0  0  0  0  0
    8.5298   -1.6482    0.0000 C   0  0  0  0  0  0  0  0  0  0  0  0
    8.5298   -2.4722    0.0000 N   0  0  0  0  0  0  0  0  0  0  0  0
    7.8234   -2.8575    0.0000 C   0  0  0  0  0  0  0  0  0  0  0  0
    4.9980   -7.8556    0.0000 C   0  0  0  0  0  0  0  0  0  0  0  0
    2.1726   -6.2074    0.0000 C   0  0  0  0  0  0  0  0  0  0  0  0
    9.9425   -6.6034    0.0000 N   0  0  0  0  0  0  0  0  0  0  0  0
    8.5298   -7.4275    0.0000 N   0  0  0  0  0  0  0  0  0  0  0  0
    2.8790   -4.9552    0.0000 C   0  0  0  0  0  0  0  0  0  0  0  0
    5.7044   -7.4275    0.0000 C   0  0  0  0  0  0  0  0  0  0  0  0
    2.1726   -7.8556    0.0000 C   0  0  0  0  0  0  0  0  0  0  0  0
    6.4107   -2.8575    0.0000 N   0  0  0  0  0  0  0  0  0  0  0  0
    8.5298   -4.9552    0.0000 C   0  0  0  0  0  0  0  0  0  0  0  0
    4.2916   -4.9552    0.0000 O   0  0  0  0  0  0  0  0  0  0  0  0
    7.1171   -1.6482    0.0000 O   0  0  0  0  0  0  0  0  0  0  0  0
    7.8234   -1.2522    0.0000 O   0  0  0  0  0  0  0  0  0  0  0  0
    9.2362   -1.2522    0.0000 C   0  0  0  0  0  0  0  0  0  0  0  0
    7.8234   -3.7244    0.0000 C   0  0  0  0  0  0  0  0  0  0  0  0
    5.7044   -6.6034    0.0000 O   0  0  0  0  0  0  0  0  0  0  0  0
    7.8234   -5.3405    0.0000 O   0  0  0  0  0  0  0  0  0  0  0  0
    2.8790   -4.1204    0.0000 C   0  0  0  0  0  0  0  0  0  0  0  0
    2.1726   -5.3405    0.0000 C   0  0  0  0  0  0  0  0  0  0  0  0
    4.9980   -6.2074    0.0000 C   0  0  0  0  0  0  0  0  0  0  0  0
    9.2362   -7.8556    0.0000 C   0  0  0  0  0  0  0  0  0  0  0  0
    9.9425   -7.4275    0.0000 C   0  0  0  0  0  0  0  0  0  0  0  0
    8.5298   -6.6034    0.0000 C   0  0  0  0  0  0  0  0  0  0  0  0
    9.2362   -6.2074    0.0000 C   0  0  0  0  0  0  0  0  0  0  0  0
    8.5298   -4.1204    0.0000 C   0  0  0  0  0  0  0  0  0  0  0  0
    1.4234   -7.4275    0.0000 C   0  0  0  0  0  0  0  0  0  0  0  0
    1.4234   -6.6034    0.0000 C   0  0  0  0  0  0  0  0  0  0  0  0
    1.4234   -4.1204    0.0000 C   0  0  0  0  0  0  0  0  0  0  0  0
    6.4107   -7.8556    0.0000 O   0  0  0  0  0  0  0  0  0  0  0  0
    2.1726   -3.7244    0.0000 C   0  0  0  0  0  0  0  0  0  0  0  0
    1.4234   -4.9552    0.0000 C   0  0  0  0  0  0  0  0  0  0  0  0
    9.2362   -5.3405    0.0000 O   0  0  0  0  0  0  0  0  0  0  0  0
    0.7171   -3.6923    0.0000 Cl  0  0  0  0  0  0  0  0  0  0  0  0
   10.7024   -6.2074    0.0000 C   0  0  0  0  0  0  0  0  0  0  0  0
    7.8234   -7.8556    0.0000 C   0  0  0  0  0  0  0  0  0  0  0  0
   10.7024   -5.3405    0.0000 C   0  0  0  0  0  0  0  0  0  0  0  0
    7.1171   -7.4275    0.0000 C   0  0  0  0  0  0  0  0  0  0  0  0
    0.7171   -7.8556    0.0000 O   0  0  0  0  0  0  0  0  0  0  0  0
    6.4107   -3.7244    0.0000 C   0  0  0  0  0  0  0  0  0  0  0  0
    5.7044   -2.4722    0.0000 C   0  0  0  0  0  0  0  0  0  0  0  0
    9.9425   -4.9552    0.0000 C   0  0  0  0  0  0  0  0  0  0  0  0
    9.2362   -0.4281    0.0000 C   0  0  0  0  0  0  0  0  0  0  0  0
    9.9425   -1.6482    0.0000 C   0  0  0  0  0  0  0  0  0  0  0  0
    0.0000   -7.4703    0.0000 C   0  0  0  0  0  0  0  0  0  0  0  0
    5.7044   -1.6482    0.0000 C   0  0  0  0  0  0  0  0  0  0  0  0
    5.7044   -4.1204    0.0000 C   0  0  0  0  0  0  0  0  0  0  0  0
    5.7044   -4.9552    0.0000 C   0  0  0  0  0  0  0  0  0  0  0  0
    4.9980   -1.2522    0.0000 C   0  0  0  0  0  0  0  0  0  0  0  0
   10.7024   -1.2522    0.0000 C   0  0  0  0  0  0  0  0  0  0  0  0
    9.9425    0.0000    0.0000 C   0  0  0  0  0  0  0  0  0  0  0  0
   10.7024   -0.4281    0.0000 C   0  0  0  0  0  0  0  0  0  0  0  0
  1  2  1  0
  1  4  1  0
  1  6  1  0
  2  3  2  0
  2 29  1  0
  3 11  1  0
  3  5  1  0
  4  5  2  0
  4 12  1  0
  5 17  1  0
  6 15  1  0
  6 20  2  0
  7 10  1  0
  7 18  1  0
  7 21  2  0
  8  9  1  0
  8 22  2  0
  8 23  1  0
  9 10  1  0
 10 24  1  0
 11 16  1  0
 12 36  2  0
 13 33  1  0
 13 43  1  0
 13 31  1  0
 14 44  1  0
 14 30  1  0
 14 32  1  0
 15 27  2  0
 15 28  1  0
 16 25  2  0
 16 38  1  0
 17 35  2  0
 18 48  1  0
 18 49  1  0
 19 41  1  0
 19 26  2  0
 19 34  1  0
 23 51  2  0
 23 52  1  0
 24 34  1  0
 27 39  1  0
 28 40  2  0
 30 31  1  0
 32 33  1  0
 35 36  1  0
 35 47  1  0
 37 40  1  0
 37 42  1  0
 37 39  2  0
 38 46  1  0
 41 50  1  0
 43 45  1  0
 44 46  1  0
 45 50  1  0
 47 53  1  0
 48 55  1  0
 49 54  1  0
 51 59  1  0
 52 58  2  0
 54 57  1  0
 55 56  1  0
 58 60  1  0
 59 60  2  0
M  END
>  <Formula>  (181) 
C46H58ClN5O8

>  <FW>  (181) 
844.4344

>  <DSSTox_CID>  (181) 
28768

>  <NR-AR>  (181) 
0

>  <NR-ER>  (181) 
1

>  <NR-ER-LBD>  (181) 
1

>  <NR-AhR>  (181) 
1

>  <SR-ATAD5>  (181) 
0

>  <SR-p53>  (181) 
0

$$$$
NCGC00167481-01
     RDKit          2D

 59 64  0  0  1  0  0  0  0  0999 V2000
    6.0630   -1.3942    0.0000 Cl  0  0  0  0  0  0  0  0  0  0  0  0
    0.0000   -5.3339    0.0000 C   0  0  0  0  0  0  0  0  0  0  0  0
    0.7163   -4.9245    0.0000 O   0  0  0  0  0  0  0  0  0  0  0  0
    1.4198   -5.3339    0.0000 C   0  0  0  0  0  0  0  0  0  0  0  0
    1.4198   -6.1525    0.0000 O   0  0  0  0  0  0  0  0  0  0  0  0
    2.1361   -4.9245    0.0000 C   0  0  0  0  0  0  0  0  0  0  0  0
    2.1361   -4.0932    0.0000 C   0  0  0  0  0  0  0  0  0  0  0  0
    1.4198   -3.6838    0.0000 C   0  0  0  0  0  0  0  0  0  0  0  0
    1.4198   -2.8652    0.0000 C   0  0  0  0  0  0  0  0  0  0  0  0
    0.7163   -2.4559    0.0000 C   0  0  0  0  0  0  0  0  0  0  0  0
    0.0000   -2.8652    0.0000 O   0  0  0  0  0  0  0  0  0  0  0  0
    0.7163   -1.6373    0.0000 C   0  0  0  0  0  0  0  0  0  0  0  0
    0.0000   -1.2279    0.0000 C   0  0  0  0  0  0  0  0  0  0  0  0
    0.0000   -0.4093    0.0000 C   0  0  0  0  0  0  0  0  0  0  0  0
    0.7163    0.0000    0.0000 C   0  0  0  0  0  0  0  0  0  0  0  0
    1.4198   -0.4093    0.0000 C   0  0  0  0  0  0  0  0  0  0  0  0
    2.1361    0.0000    0.0000 O   0  0  0  0  0  0  0  0  0  0  0  0
    1.4198   -1.2279    0.0000 C   0  0  0  0  0  0  0  0  0  0  0  0
    2.1361   -1.6373    0.0000 C   0  0  0  0  0  0  0  0  0  0  0  0
    2.8396   -1.2279    0.0000 O   0  0  0  0  0  0  0  0  0  0  0  0
    2.1361   -2.4559    0.0000 C   0  0  0  0  0  0  0  0  0  0  0  0
    2.8396   -2.8652    0.0000 C   0  0  0  0  0  0  0  0  0  0  0  0
    3.5559   -2.4559    0.0000 O   0  0  0  0  0  0  0  0  0  0  0  0
    2.8396   -3.6838    0.0000 C   0  0  0  0  0  0  0  0  0  0  0  0
    3.5559   -4.0932    0.0000 C   0  0  0  0  0  0  0  0  0  0  0  0
    3.5559   -4.9245    0.0000 C   0  0  0  0  0  0  0  0  0  0  0  0
    2.8396   -5.3339    0.0000 C   0  0  0  0  0  0  0  0  0  0  0  0
    2.3152   -5.9606    0.0000 O   0  0  0  0  0  0  0  0  0  0  0  0
    3.3640   -5.9606    0.0000 C   0  0  0  0  0  0  0  0  0  0  0  0
    3.0954   -6.7281    0.0000 C   0  0  0  0  0  0  0  0  0  0  0  0
    4.2595   -3.6838    0.0000 O   0  0  0  0  0  0  0  0  0  0  0  0
    4.9757   -4.0932    0.0000 C   0  0  0  0  0  0  0  0  0  0  0  0
    5.6792   -3.6838    0.0000 O   0  0  0  0  0  0  0  0  0  0  0  0
    6.3955   -4.0932    0.0000 C   0  0  0  0  0  0  0  0  0  0  0  0
    7.1118   -3.6838    0.0000 C   0  0  0  0  0  0  0  0  0  0  0  0
    6.3955   -4.9245    0.0000 C   0  0  0  0  0  0  0  0  0  0  0  0
    7.1118   -5.3339    0.0000 O   0  0  0  0  0  0  0  0  0  0  0  0
    7.8153   -4.9245    0.0000 C   0  0  0  0  0  0  0  0  0  0  0  0
    7.8153   -4.0932    0.0000 C   0  0  0  0  0  0  0  0  0  0  0  0
    8.5317   -3.6838    0.0000 C   0  0  0  0  0  0  0  0  0  0  0  0
    8.5317   -2.8652    0.0000 O   0  0  0  0  0  0  0  0  0  0  0  0
    9.2352   -4.0932    0.0000 C   0  0  0  0  0  0  0  0  0  0  0  0
    9.9515   -3.6838    0.0000 O   0  0  0  0  0  0  0  0  0  0  0  0
   10.6550   -4.0932    0.0000 C   0  0  0  0  0  0  0  0  0  0  0  0
   11.3713   -3.6838    0.0000 C   0  0  0  0  0  0  0  0  0  0  0  0
   12.0748   -4.0932    0.0000 C   0  0  0  0  0  0  0  0  0  0  0  0
   12.0748   -4.9245    0.0000 C   0  0  0  0  0  0  0  0  0  0  0  0
   12.7911   -5.3339    0.0000 O   0  0  0  0  0  0  0  0  0  0  0  0
   11.3713   -5.3339    0.0000 C   0  0  0  0  0  0  0  0  0  0  0  0
   11.3713   -6.1525    0.0000 C   0  0  0  0  0  0  0  0  0  0  0  0
   10.6550   -4.9245    0.0000 O   0  0  0  0  0  0  0  0  0  0  0  0
    9.2352   -4.9245    0.0000 C   0  0  0  0  0  0  0  0  0  0  0  0
    9.9515   -5.3339    0.0000 C   0  0  0  0  0  0  0  0  0  0  0  0
    8.5317   -5.3339    0.0000 O   0  0  0  0  0  0  0  0  0  0  0  0
    5.6792   -5.3339    0.0000 C   0  0  0  0  0  0  0  0  0  0  0  0
    4.9757   -4.9245    0.0000 C   0  0  0  0  0  0  0  0  0  0  0  0
    5.6792   -6.1525    0.0000 N   0  0  0  0  0  0  0  0  0  0  0  0
    6.3955   -6.5618    0.0000 C   0  0  0  0  0  0  0  0  0  0  0  0
    4.9757   -6.5618    0.0000 C   0  0  0  0  0  0  0  0  0  0  0  0
  2  3  1  0
  3  4  1  0
  4  5  2  0
  6  4  1  6
  6  7  1  0
  6 27  1  0
  7  8  1  0
  7 24  2  0
  8  9  2  0
  9 10  1  0
  9 21  1  0
 10 11  2  0
 10 12  1  0
 12 13  2  0
 12 18  1  0
 13 14  1  0
 14 15  2  0
 15 16  1  0
 16 17  1  0
 16 18  2  0
 18 19  1  0
 19 20  2  0
 19 21  1  0
 21 22  2  0
 22 23  1  0
 22 24  1  0
 24 25  1  0
 25 26  1  0
 25 31  1  1
 26 27  1  0
 27 28  1  1
 27 29  1  0
 29 30  1  0
 32 31  1  6
 32 33  1  0
 32 56  1  0
 33 34  1  0
 34 35  1  1
 34 36  1  0
 36 37  1  1
 36 55  1  0
 38 37  1  1
 38 39  1  0
 38 54  1  0
 39 40  1  0
 40 41  1  6
 40 42  1  0
 42 43  1  6
 42 52  1  0
 44 43  1  1
 44 45  1  0
 44 51  1  0
 45 46  1  0
 46 47  1  0
 47 48  2  0
 47 49  1  0
 49 50  1  6
 49 51  1  0
 52 53  1  6
 52 54  1  0
 55 56  1  0
 55 57  1  1
 57 58  1  0
 57 59  1  0
M  END
>  <Formula>  (182) 
C42H54ClNO15

>  <FW>  (182) 
848.3289 (36.4609+811.8679)

>  <DSSTox_CID>  (182) 
26658

>  <NR-Aromatase>  (182) 
1

>  <NR-AR>  (182) 
0

>  <NR-AR-LBD>  (182) 
1

>  <NR-ER>  (182) 
1

>  <SR-MMP>  (182) 
1

>  <SR-p53>  (182) 
1

$$$$
NCGC00188444-01
     RDKit          2D

 46 52  0  0  1  0  0  0  0  0999 V2000
    0.7125   -4.1158    0.0000 P   0  0  0  0  0  0  0  0  0  0  0  0
    0.0000   -3.7126    0.0000 O   0  0  0  0  0  0  0  0  0  0  0  0
    1.4344   -4.5376    0.0000 O   0  0  0  0  0  0  0  0  0  0  0  0
    0.3000   -4.8376    0.0000 O   0  0  0  0  0  0  0  0  0  0  0  0
    2.3907   -1.2750    0.0000 C   0  0  0  0  0  0  0  0  0  0  0  0
    1.9500   -1.9782    0.0000 O   0  0  0  0  0  0  0  0  0  0  0  0
    2.3626   -2.7001    0.0000 C   0  0  0  0  0  0  0  0  0  0  0  0
    3.1876   -2.7001    0.0000 C   0  0  0  0  0  0  0  0  0  0  0  0
    3.6001   -3.4032    0.0000 C   0  0  0  0  0  0  0  0  0  0  0  0
    3.1876   -4.1251    0.0000 C   0  0  0  0  0  0  0  0  0  0  0  0
    2.3626   -4.1251    0.0000 C   0  0  0  0  0  0  0  0  0  0  0  0
    1.9500   -4.8470    0.0000 O   0  0  0  0  0  0  0  0  0  0  0  0
    2.2969   -5.5877    0.0000 C   0  0  0  0  0  0  0  0  0  0  0  0
    1.9500   -3.4032    0.0000 C   0  0  0  0  0  0  0  0  0  0  0  0
    1.1250   -3.4032    0.0000 O   0  0  0  0  0  0  0  0  0  0  0  0
    4.4251   -3.4032    0.0000 C   0  0  0  0  0  0  0  0  0  0  0  0
    4.8376   -2.7001    0.0000 C   0  0  0  0  0  0  0  0  0  0  0  0
    4.4251   -1.9782    0.0000 C   0  0  0  0  0  0  0  0  0  0  0  0
    4.8376   -1.2656    0.0000 C   0  0  0  0  0  0  0  0  0  0  0  0
    4.5845   -0.4781    0.0000 O   0  0  0  0  0  0  0  0  0  0  0  0
    5.2502    0.0000    0.0000 C   0  0  0  0  0  0  0  0  0  0  0  0
    5.9158   -0.4781    0.0000 O   0  0  0  0  0  0  0  0  0  0  0  0
    5.6626   -1.2656    0.0000 C   0  0  0  0  0  0  0  0  0  0  0  0
    6.0752   -1.9782    0.0000 C   0  0  0  0  0  0  0  0  0  0  0  0
    5.6626   -2.7001    0.0000 C   0  0  0  0  0  0  0  0  0  0  0  0
    6.0752   -3.4032    0.0000 C   0  0  0  0  0  0  0  0  0  0  0  0
    6.9002   -3.4032    0.0000 O   0  0  0  0  0  0  0  0  0  0  0  0
    7.3127   -4.1251    0.0000 C   0  0  0  0  0  0  0  0  0  0  0  0
    6.9002   -4.8470    0.0000 O   0  0  0  0  0  0  0  0  0  0  0  0
    7.3127   -5.5501    0.0000 C   0  0  0  0  0  0  0  0  0  0  0  0
    6.9002   -6.2627    0.0000 C   0  0  0  0  0  0  0  0  0  0  0  0
    7.3127   -6.9845    0.0000 O   0  0  0  0  0  0  0  0  0  0  0  0
    8.1471   -6.9845    0.0000 C   0  0  0  0  0  0  0  0  0  0  0  0
    8.5502   -7.6970    0.0000 C   0  0  0  0  0  0  0  0  0  0  0  0
    8.5502   -6.2627    0.0000 O   0  0  0  0  0  0  0  0  0  0  0  0
    8.1471   -5.5501    0.0000 C   0  0  0  0  0  0  0  0  0  0  0  0
    8.5502   -4.8470    0.0000 C   0  0  0  0  0  0  0  0  0  0  0  0
    9.3752   -4.8470    0.0000 O   0  0  0  0  0  0  0  0  0  0  0  0
    8.1471   -4.1251    0.0000 C   0  0  0  0  0  0  0  0  0  0  0  0
    8.5502   -3.4032    0.0000 O   0  0  0  0  0  0  0  0  0  0  0  0
    5.6626   -4.1251    0.0000 C   0  0  0  0  0  0  0  0  0  0  0  0
    5.9158   -4.9033    0.0000 C   0  0  0  0  0  0  0  0  0  0  0  0
    5.2502   -5.3908    0.0000 O   0  0  0  0  0  0  0  0  0  0  0  0
    4.5845   -4.9033    0.0000 C   0  0  0  0  0  0  0  0  0  0  0  0
    3.7970   -5.1658    0.0000 O   0  0  0  0  0  0  0  0  0  0  0  0
    4.8376   -4.1251    0.0000 C   0  0  0  0  0  0  0  0  0  0  0  0
  1  2  1  0
  1  3  2  0
  1  4  1  0
  1 15  1  0
  5  6  1  0
  6  7  1  0
  7  8  2  0
  7 14  1  0
  8  9  1  0
  9 10  2  0
 16  9  1  6
 10 11  1  0
 11 12  1  0
 11 14  2  0
 12 13  1  0
 14 15  1  0
 16 17  1  0
 16 46  1  0
 17 18  2  0
 17 25  1  0
 18 19  1  0
 19 20  1  0
 19 23  2  0
 20 21  1  0
 21 22  1  0
 22 23  1  0
 23 24  1  0
 24 25  2  0
 25 26  1  0
 26 27  1  0
 26 41  1  0
 28 27  1  1
 28 29  1  0
 28 39  1  0
 30 29  1  0
 30 31  1  1
 30 36  1  0
 31 32  1  0
 32 33  1  0
 33 34  1  6
 33 35  1  0
 36 35  1  6
 36 37  1  0
 37 38  1  1
 37 39  1  0
 39 40  1  6
 41 42  1  0
 41 46  1  0
 42 43  1  0
 43 44  1  0
 44 45  2  0
 46 44  1  6
M  END
>  <Formula>  (183) 
C29H33O16P

>  <FW>  (183) 
668.5365

>  <DSSTox_CID>  (183) 
28571

>  <NR-Aromatase>  (183) 
0

>  <NR-AR>  (183) 
0

>  <NR-AR-LBD>  (183) 
0

>  <NR-ER>  (183) 
1

>  <SR-ATAD5>  (183) 
1

>  <SR-MMP>  (183) 
0

>  <SR-p53>  (183) 
1

$$$$
NCGC00024246-05
     RDKit          2D

 38 42  0  0  1  0  0  0  0  0999 V2000
    2.3886   -5.9401    0.0000 C   0  0  0  0  0  0  0  0  0  0  0  0
    1.8622   -5.3115    0.0000 C   0  0  0  0  0  0  0  0  0  0  0  0
    1.0450   -5.4529    0.0000 O   0  0  0  0  0  0  0  0  0  0  0  0
    2.1450   -4.5336    0.0000 C   0  0  0  0  0  0  0  0  0  0  0  0
    1.3278   -4.3922    0.0000 O   0  0  0  0  0  0  0  0  0  0  0  0
    2.1450   -3.7086    0.0000 C   0  0  0  0  0  0  0  0  0  0  0  0
    2.8600   -3.2922    0.0000 C   0  0  0  0  0  0  0  0  0  0  0  0
    2.8600   -2.4750    0.0000 O   0  0  0  0  0  0  0  0  0  0  0  0
    2.1450   -2.0586    0.0000 C   0  0  0  0  0  0  0  0  0  0  0  0
    1.4300   -2.4750    0.0000 C   0  0  0  0  0  0  0  0  0  0  0  0
    0.7150   -2.0586    0.0000 C   0  0  0  0  0  0  0  0  0  0  0  0
    0.0000   -2.4750    0.0000 N   0  0  0  0  0  0  0  0  0  0  0  0
    0.7150   -1.2336    0.0000 C   0  0  0  0  0  0  0  0  0  0  0  0
    0.0000   -0.8250    0.0000 O   0  0  0  0  0  0  0  0  0  0  0  0
    1.4300   -0.8250    0.0000 C   0  0  0  0  0  0  0  0  0  0  0  0
    1.4300    0.0000    0.0000 C   0  0  0  0  0  0  0  0  0  0  0  0
    2.1450   -1.2336    0.0000 O   0  0  0  0  0  0  0  0  0  0  0  0
    3.5750   -3.7086    0.0000 C   0  0  0  0  0  0  0  0  0  0  0  0
    4.2822   -3.2922    0.0000 C   0  0  0  0  0  0  0  0  0  0  0  0
    4.2822   -2.4750    0.0000 O   0  0  0  0  0  0  0  0  0  0  0  0
    4.9972   -3.7086    0.0000 C   0  0  0  0  0  0  0  0  0  0  0  0
    5.7122   -3.2922    0.0000 C   0  0  0  0  0  0  0  0  0  0  0  0
    5.7122   -2.4750    0.0000 O   0  0  0  0  0  0  0  0  0  0  0  0
    6.4272   -3.7086    0.0000 C   0  0  0  0  0  0  0  0  0  0  0  0
    7.1422   -3.2922    0.0000 C   0  0  0  0  0  0  0  0  0  0  0  0
    7.1422   -2.4750    0.0000 O   0  0  0  0  0  0  0  0  0  0  0  0
    7.8572   -2.0586    0.0000 C   0  0  0  0  0  0  0  0  0  0  0  0
    7.8572   -3.7086    0.0000 C   0  0  0  0  0  0  0  0  0  0  0  0
    7.8572   -4.5336    0.0000 C   0  0  0  0  0  0  0  0  0  0  0  0
    7.1422   -4.9422    0.0000 C   0  0  0  0  0  0  0  0  0  0  0  0
    6.4272   -4.5336    0.0000 C   0  0  0  0  0  0  0  0  0  0  0  0
    5.7122   -4.9422    0.0000 C   0  0  0  0  0  0  0  0  0  0  0  0
    5.7122   -5.7672    0.0000 O   0  0  0  0  0  0  0  0  0  0  0  0
    4.9972   -4.5336    0.0000 C   0  0  0  0  0  0  0  0  0  0  0  0
    4.2822   -4.9422    0.0000 C   0  0  0  0  0  0  0  0  0  0  0  0
    4.2822   -5.7672    0.0000 O   0  0  0  0  0  0  0  0  0  0  0  0
    3.5750   -4.5336    0.0000 C   0  0  0  0  0  0  0  0  0  0  0  0
    2.8600   -4.9422    0.0000 C   0  0  0  0  0  0  0  0  0  0  0  0
  1  2  1  0
  2  3  2  0
  4  2  1  0
  4  5  1  6
  4  6  1  0
  4 38  1  0
  6  7  1  0
  7  8  1  6
  7 18  1  0
  9  8  1  1
  9 10  1  0
  9 17  1  0
 10 11  1  0
 11 12  1  6
 11 13  1  0
 13 14  1  6
 13 15  1  0
 15 16  1  6
 15 17  1  0
 18 19  1  0
 18 37  2  0
 19 20  1  0
 19 21  2  0
 21 22  1  0
 21 34  1  0
 22 23  2  0
 22 24  1  0
 24 25  2  0
 24 31  1  0
 25 26  1  0
 25 28  1  0
 26 27  1  0
 28 29  2  0
 29 30  1  0
 30 31  2  0
 31 32  1  0
 32 33  2  0
 32 34  1  0
 34 35  2  0
 35 36  1  0
 35 37  1  0
 37 38  1  0
M  END
>  <Formula>  (184) 
C27H29NO10

>  <FW>  (184) 
527.5199

>  <DSSTox_CID>  (184) 
2883

>  <NR-Aromatase>  (184) 
1

>  <NR-AR>  (184) 
0

>  <NR-AR-LBD>  (184) 
1

>  <NR-ER>  (184) 
1

>  <NR-ER-LBD>  (184) 
1

>  <SR-ATAD5>  (184) 
1

>  <SR-MMP>  (184) 
1

>  <SR-p53>  (184) 
1

$$$$
NCGC00167571-01
     RDKit          2D

 41 44  0  0  1  0  0  0  0  0999 V2000
    4.2945   -1.7001    0.0000 C   0  0  0  0  0  0  0  0  0  0  0  0
    2.8814   -2.5281    0.0000 C   0  0  0  0  0  0  0  0  0  0  0  0
    2.1638   -2.9476    0.0000 C   0  0  0  0  0  0  0  0  0  0  0  0
    4.2945   -2.5281    0.0000 C   0  0  0  0  0  0  0  0  0  0  0  0
    3.5879   -2.9476    0.0000 C   0  0  0  0  0  0  0  0  0  0  0  0
    5.0893   -1.4462    0.0000 C   0  0  0  0  0  0  0  0  0  0  0  0
    2.1638   -3.7646    0.0000 C   0  0  0  0  0  0  0  0  0  0  0  0
    2.8814   -1.7001    0.0000 C   0  0  0  0  0  0  0  0  0  0  0  0
    3.5879   -1.2916    0.0000 C   0  0  0  0  0  0  0  0  0  0  0  0
    5.5751   -2.1196    0.0000 C   0  0  0  0  0  0  0  0  0  0  0  0
    1.4462   -2.5281    0.0000 C   0  0  0  0  0  0  0  0  0  0  0  0
    5.0893   -2.7710    0.0000 C   0  0  0  0  0  0  0  0  0  0  0  0
    1.4462   -4.1841    0.0000 C   0  0  0  0  0  0  0  0  0  0  0  0
    5.3101   -0.6403    0.0000 C   0  0  0  0  0  0  0  0  0  0  0  0
    3.5879   -3.7646    0.0000 C   0  0  0  0  0  0  0  0  0  0  0  0
    0.7397   -2.9476    0.0000 C   0  0  0  0  0  0  0  0  0  0  0  0
    0.7397   -3.7646    0.0000 C   0  0  0  0  0  0  0  0  0  0  0  0
    2.8814   -4.1841    0.0000 C   0  0  0  0  0  0  0  0  0  0  0  0
    2.8703   -3.2236    0.0000 F   0  0  0  0  0  0  0  0  0  0  0  0
    4.7250   -0.0442    0.0000 O   0  0  0  0  0  0  0  0  0  0  0  0
    0.0000   -4.1951    0.0000 O   0  0  0  0  0  0  0  0  0  0  0  0
    5.9173   -1.4462    0.0000 O   0  0  0  0  0  0  0  0  0  0  0  0
    4.2945   -0.8611    0.0000 C   0  0  0  0  0  0  0  0  0  0  0  0
    2.1417   -1.2806    0.0000 O   0  0  0  0  0  0  0  0  0  0  0  0
    2.1638   -2.1196    0.0000 C   0  0  0  0  0  0  0  0  0  0  0  0
    6.4031   -2.1086    0.0000 C   0  0  0  0  0  0  0  0  0  0  0  0
    6.1050   -0.4416    0.0000 C   0  0  0  0  0  0  0  0  0  0  0  0
    6.6901   -1.0267    0.0000 O   0  0  0  0  0  0  0  0  0  0  0  0
    7.4850   -0.8280    0.0000 C   0  0  0  0  0  0  0  0  0  0  0  0
    8.0591   -1.4131    0.0000 C   0  0  0  0  0  0  0  0  0  0  0  0
    8.8649   -1.2144    0.0000 C   0  0  0  0  0  0  0  0  0  0  0  0
    7.8382   -2.2080    0.0000 C   0  0  0  0  0  0  0  0  0  0  0  0
    9.4390   -1.7995    0.0000 C   0  0  0  0  0  0  0  0  0  0  0  0
    8.4233   -2.8041    0.0000 C   0  0  0  0  0  0  0  0  0  0  0  0
    9.2182   -2.5944    0.0000 C   0  0  0  0  0  0  0  0  0  0  0  0
    7.7168   -0.0331    0.0000 O   0  0  0  0  0  0  0  0  0  0  0  0
   10.2339   -1.6008    0.0000 S   0  0  0  0  0  0  0  0  0  0  0  0
   11.0398   -1.3910    0.0000 O   0  0  0  0  0  0  0  0  0  0  0  0
   10.0352   -0.7948    0.0000 O   0  0  0  0  0  0  0  0  0  0  0  0
   10.4436   -2.3957    0.0000 O   0  0  0  0  0  0  0  0  0  0  0  0
    8.9201    0.0000    0.0000 Na  0  0  0  0  0 15  0  0  0  0  0  0
  1  4  1  0
  1  6  1  0
  1  9  1  0
  1 23  1  1
  2  8  1  0
  2  3  1  0
  2 19  1  6
  2  5  1  0
  3  7  1  0
  3 11  1  0
  3 25  1  1
  4  5  1  0
  4 12  1  1
  5 15  1  6
  6 10  1  0
  6 14  1  0
  6 22  1  6
  7 13  2  0
  7 18  1  0
  8  9  1  0
  8 24  1  1
 10 26  1  6
 10 12  1  0
 11 16  2  0
 13 17  1  0
 14 20  2  0
 14 27  1  0
 15 18  1  0
 16 17  1  0
 17 21  2  0
 27 28  1  0
 28 29  1  0
 29 30  1  0
 29 36  2  0
 30 31  2  0
 30 32  1  0
 31 33  1  0
 32 34  2  0
 33 35  2  0
 33 37  1  0
 34 35  1  0
 37 38  1  0
 37 39  2  0
 37 40  2  0
M  CHG  2  38  -1  41   1
M  END
>  <Formula>  (185) 
C29H32FNaO9S

>  <FW>  (185) 
598.6122 (575.6229+22.9892)

>  <DSSTox_CID>  (185) 
26722

>  <NR-AR>  (185) 
1

>  <NR-AR-LBD>  (185) 
1

>  <NR-ER>  (185) 
1

>  <NR-ER-LBD>  (185) 
0

>  <NR-PPAR-gamma>  (185) 
0

>  <SR-MMP>  (185) 
0

>  <SR-p53>  (185) 
0

$$$$
NCGC00183097-01
     RDKit          2D

 30 31  0  0  1  0  0  0  0  0999 V2000
    4.1248   -2.5665    0.0000 C   0  0  0  0  0  0  0  0  0  0  0  0
    4.2979   -1.6499    0.0000 C   0  0  0  0  0  0  0  0  0  0  0  0
    4.3997   -3.3405    0.0000 C   0  0  0  0  0  0  0  0  0  0  0  0
    3.2998   -2.5665    0.0000 C   0  0  0  0  0  0  0  0  0  0  0  0
    3.5748   -1.2629    0.0000 C   0  0  0  0  0  0  0  0  0  0  0  0
    5.0006   -1.2629    0.0000 C   0  0  0  0  0  0  0  0  0  0  0  0
    3.7173   -3.8395    0.0000 C   0  0  0  0  0  0  0  0  0  0  0  0
    5.1635   -3.5850    0.0000 C   0  0  0  0  0  0  0  0  0  0  0  0
    2.9739   -1.8230    0.0000 O   0  0  0  0  0  0  0  0  0  0  0  0
    3.0452   -3.3507    0.0000 C   0  0  0  0  0  0  0  0  0  0  0  0
    3.5748   -0.4277    0.0000 C   0  0  0  0  0  0  0  0  0  0  0  0
    5.0006   -0.4277    0.0000 C   0  0  0  0  0  0  0  0  0  0  0  0
    3.7275   -4.6747    0.0000 O   0  0  0  0  0  0  0  0  0  0  0  0
    5.8866   -3.1877    0.0000 C   0  0  0  0  0  0  0  0  0  0  0  0
    2.8619   -0.0102    0.0000 C   0  0  0  0  0  0  0  0  0  0  0  0
    4.2979   -0.0102    0.0000 C   0  0  0  0  0  0  0  0  0  0  0  0
    6.5996   -3.5850    0.0000 C   0  0  0  0  0  0  0  0  0  0  0  0
    2.1489   -0.4176    0.0000 C   0  0  0  0  0  0  0  0  0  0  0  0
    7.3226   -3.1776    0.0000 C   0  0  0  0  0  0  0  0  0  0  0  0
    6.5996   -4.4303    0.0000 O   0  0  0  0  0  0  0  0  0  0  0  0
    1.4360   -0.0102    0.0000 C   0  0  0  0  0  0  0  0  0  0  0  0
    8.0356   -3.5850    0.0000 C   0  0  0  0  0  0  0  0  0  0  0  0
    7.3226   -2.3526    0.0000 C   0  0  0  0  0  0  0  0  0  0  0  0
    0.7027   -0.4176    0.0000 C   0  0  0  0  0  0  0  0  0  0  0  0
    8.7485   -3.1776    0.0000 C   0  0  0  0  0  0  0  0  0  0  0  0
    0.7027   -1.2323    0.0000 O   0  0  0  0  0  0  0  0  0  0  0  0
    0.0000    0.0000    0.0000 O   0  0  0  0  0  0  0  0  0  0  0  0
    9.4716   -2.7702    0.0000 C   0  0  0  0  0  0  0  0  0  0  0  0
   10.1845   -2.3526    0.0000 C   0  0  0  0  0  0  0  0  0  0  0  0
    0.6518   -2.6378    0.0000 Na  0  0  0  0  0 15  0  0  0  0  0  0
  1  2  1  6
  1  3  1  0
  1  4  1  0
  2  5  2  0
  2  6  1  0
  3  7  1  0
  3  8  1  1
  4  9  1  0
  4 10  1  6
  5 11  1  0
  5  9  1  0
  6 12  2  0
  7 13  1  6
  7 10  1  0
  8 14  2  0
 11 15  1  0
 11 16  2  0
 12 16  1  0
 14 17  1  0
 15 18  1  0
 17 19  1  0
 17 20  1  6
 18 21  1  0
 19 22  1  0
 19 23  1  0
 21 24  1  0
 22 25  1  0
 24 26  1  0
 24 27  2  0
 25 28  3  0
 28 29  1  0
M  CHG  2  26  -1  30   1
M  END
>  <Formula>  (186) 
C24H29NaO5

>  <FW>  (186) 
420.4738 (397.4846+22.9892)

>  <DSSTox_CID>  (186) 
28511

>  <NR-Aromatase>  (186) 
0

>  <NR-AR>  (186) 
0

>  <NR-AR-LBD>  (186) 
0

>  <NR-ER>  (186) 
1

>  <NR-PPAR-gamma>  (186) 
0

>  <NR-AhR>  (186) 
0

>  <SR-ATAD5>  (186) 
0

>  <SR-p53>  (186) 
0

$$$$
NCGC00023193-04
     RDKit          2D

 31 35  0  0  1  0  0  0  0  0999 V2000
    5.0720   -1.2411    0.0000 C   0  0  0  0  0  0  0  0  0  0  0  0
    4.2901   -1.4993    0.0000 C   0  0  0  0  0  0  0  0  0  0  0  0
    2.8839   -2.3100    0.0000 C   0  0  0  0  0  0  0  0  0  0  0  0
    2.1593   -2.7189    0.0000 C   0  0  0  0  0  0  0  0  0  0  0  0
    4.2901   -2.3100    0.0000 C   0  0  0  0  0  0  0  0  0  0  0  0
    3.5726   -2.7261    0.0000 C   0  0  0  0  0  0  0  0  0  0  0  0
    5.5598   -1.9155    0.0000 C   0  0  0  0  0  0  0  0  0  0  0  0
    2.1593   -3.5511    0.0000 C   0  0  0  0  0  0  0  0  0  0  0  0
    5.5670   -0.5883    0.0000 O   0  0  0  0  0  0  0  0  0  0  0  0
    2.8839   -1.4993    0.0000 C   0  0  0  0  0  0  0  0  0  0  0  0
    3.5726   -1.0905    0.0000 C   0  0  0  0  0  0  0  0  0  0  0  0
    6.3418   -0.8393    0.0000 C   0  0  0  0  0  0  0  0  0  0  0  0
    6.3418   -1.6643    0.0000 O   0  0  0  0  0  0  0  0  0  0  0  0
    1.4420   -2.3100    0.0000 C   0  0  0  0  0  0  0  0  0  0  0  0
    5.0720   -2.5611    0.0000 C   0  0  0  0  0  0  0  0  0  0  0  0
    5.0720   -0.4161    0.0000 C   0  0  0  0  0  0  0  0  0  0  0  0
    1.4420   -3.9744    0.0000 C   0  0  0  0  0  0  0  0  0  0  0  0
    3.5726   -3.5511    0.0000 C   0  0  0  0  0  0  0  0  0  0  0  0
    0.7245   -2.7261    0.0000 C   0  0  0  0  0  0  0  0  0  0  0  0
    0.7245   -3.5439    0.0000 C   0  0  0  0  0  0  0  0  0  0  0  0
    2.8839   -3.9744    0.0000 C   0  0  0  0  0  0  0  0  0  0  0  0
    2.8911   -3.0991    0.0000 F   0  0  0  0  0  0  0  0  0  0  0  0
    5.8037    0.0000    0.0000 O   0  0  0  0  0  0  0  0  0  0  0  0
    0.0000   -3.9672    0.0000 O   0  0  0  0  0  0  0  0  0  0  0  0
    4.2901   -0.6600    0.0000 C   0  0  0  0  0  0  0  0  0  0  0  0
    2.1593   -1.0833    0.0000 O   0  0  0  0  0  0  0  0  0  0  0  0
    2.1593   -1.9011    0.0000 C   0  0  0  0  0  0  0  0  0  0  0  0
    4.3689    0.0000    0.0000 C   0  0  0  0  0  0  0  0  0  0  0  0
    7.1739   -0.8393    0.0000 C   0  0  0  0  0  0  0  0  0  0  0  0
    6.5570   -0.0359    0.0000 C   0  0  0  0  0  0  0  0  0  0  0  0
    3.6516   -0.4376    0.0000 O   0  0  0  0  0  0  0  0  0  0  0  0
  1  2  1  0
  1  7  1  0
  1  9  1  0
  1 16  1  1
  2  5  1  0
  2 11  1  0
  2 25  1  1
  3 10  1  0
  3  4  1  0
  3 22  1  6
  3  6  1  0
  4  8  1  0
  4 14  1  0
  4 27  1  1
  5  6  1  0
  5 15  1  1
  6 18  1  6
  7 13  1  0
  7 15  1  6
  8 17  2  0
  8 21  1  0
  9 12  1  0
 10 11  1  0
 10 26  1  1
 12 29  1  0
 12 30  1  0
 12 13  1  0
 14 19  2  0
 16 23  2  0
 16 28  1  0
 17 20  1  0
 18 21  1  0
 19 20  1  0
 20 24  2  0
 28 31  1  0
M  END
>  <Formula>  (187) 
C24H31FO6

>  <FW>  (187) 
434.4977

>  <DSSTox_CID>  (187) 
1371

>  <NR-AR>  (187) 
1

>  <NR-AR-LBD>  (187) 
0

>  <NR-ER>  (187) 
1

>  <NR-ER-LBD>  (187) 
1

>  <NR-PPAR-gamma>  (187) 
0

>  <NR-AhR>  (187) 
0

>  <SR-MMP>  (187) 
0

>  <SR-p53>  (187) 
0

$$$$
NCGC00164615-01
     RDKit          2D

 32 36  0  0  0  0  0  0  0  0999 V2000
    0.0000   -1.4249    0.0000 O   0  0  0  0  0  0  0  0  0  0  0  0
    0.5608   -0.8182    0.0000 C   0  0  0  0  0  0  0  0  0  0  0  0
    1.3147   -1.1583    0.0000 C   0  0  0  0  0  0  0  0  0  0  0  0
    1.2227   -1.9857    0.0000 O   0  0  0  0  0  0  0  0  0  0  0  0
    0.4321   -2.1420    0.0000 C   0  0  0  0  0  0  0  0  0  0  0  0
    3.4567   -0.7354    0.0000 C   0  0  0  0  0  0  0  0  0  0  0  0
    2.7396   -1.1583    0.0000 N   0  0  0  0  0  0  0  0  0  0  0  0
    2.7396   -1.9857    0.0000 C   0  0  0  0  0  0  0  0  0  0  0  0
    3.4567   -2.3902    0.0000 C   0  0  0  0  0  0  0  0  0  0  0  0
    4.1737   -1.9857    0.0000 N   0  0  0  0  0  0  0  0  0  0  0  0
    4.1737   -1.1583    0.0000 C   0  0  0  0  0  0  0  0  0  0  0  0
    2.0317   -0.7354    0.0000 C   0  0  0  0  0  0  0  0  0  0  0  0
    4.9000   -2.3902    0.0000 C   0  0  0  0  0  0  0  0  0  0  0  0
    4.9000   -3.2360    0.0000 C   0  0  0  0  0  0  0  0  0  0  0  0
    5.6171   -3.6405    0.0000 C   0  0  0  0  0  0  0  0  0  0  0  0
    5.6171   -1.9857    0.0000 C   0  0  0  0  0  0  0  0  0  0  0  0
    4.1737   -3.6405    0.0000 F   0  0  0  0  0  0  0  0  0  0  0  0
    6.3341   -2.3902    0.0000 C   0  0  0  0  0  0  0  0  0  0  0  0
    6.3341   -3.2360    0.0000 C   0  0  0  0  0  0  0  0  0  0  0  0
    7.0512   -3.6405    0.0000 C   0  0  0  0  0  0  0  0  0  0  0  0
    7.7683   -3.2360    0.0000 C   0  0  0  0  0  0  0  0  0  0  0  0
    7.0512   -4.4679    0.0000 O   0  0  0  0  0  0  0  0  0  0  0  0
    8.4761   -3.6405    0.0000 C   0  0  0  0  0  0  0  0  0  0  0  0
    8.4761   -4.4679    0.0000 O   0  0  0  0  0  0  0  0  0  0  0  0
    9.1932   -3.2360    0.0000 O   0  0  0  0  0  0  0  0  0  0  0  0
    7.0512   -1.9857    0.0000 N   0  0  0  0  0  0  0  0  0  0  0  0
    7.7683   -2.3902    0.0000 C   0  0  0  0  0  0  0  0  0  0  0  0
    8.1728   -1.6732    0.0000 S   0  0  0  0  0  0  0  0  0  0  0  0
    7.4557   -1.2686    0.0000 C   0  0  0  0  0  0  0  0  0  0  0  0
    7.2534   -0.4688    0.0000 C   0  0  0  0  0  0  0  0  0  0  0  0
    0.3861    0.0000    0.0000 C   0  0  0  0  0  0  0  0  0  0  0  0
    0.0827   -2.9142    0.0000 O   0  0  0  0  0  0  0  0  0  0  0  0
  1  5  1  0
  1  2  1  0
  2 31  1  0
  2  3  2  0
  3  4  1  0
  3 12  1  0
  4  5  1  0
  5 32  2  0
  6 11  1  0
  6  7  1  0
  7  8  1  0
  7 12  1  0
  8  9  1  0
  9 10  1  0
 10 11  1  0
 10 13  1  0
 13 14  2  0
 13 16  1  0
 14 15  1  0
 14 17  1  0
 15 19  2  0
 16 18  2  0
 18 19  1  0
 18 26  1  0
 19 20  1  0
 20 21  1  0
 20 22  2  0
 21 27  2  0
 21 23  1  0
 23 24  1  0
 23 25  2  0
 26 27  1  0
 26 29  1  0
 27 28  1  0
 28 29  1  0
 29 30  1  0
M  END
>  <Formula>  (188) 
C21H20FN3O6S

>  <FW>  (188) 
461.4634

>  <DSSTox_CID>  (188) 
26480

>  <NR-AR>  (188) 
1

>  <NR-AR-LBD>  (188) 
1

>  <NR-ER>  (188) 
1

>  <NR-ER-LBD>  (188) 
1

>  <NR-PPAR-gamma>  (188) 
0

>  <NR-AhR>  (188) 
0

>  <SR-ATAD5>  (188) 
0

>  <SR-p53>  (188) 
0

$$$$
NCGC00189073-01
     RDKit          2D

 27 29  0  0  0  0  0  0  0  0999 V2000
    1.9723   -6.1877    0.0000 N   0  0  0  0  0  0  0  0  0  0  0  0
    0.8186   -5.5173    0.0000 N   0  0  0  0  0  0  0  0  0  0  0  0
    1.1602   -6.2779    0.0000 C   0  0  0  0  0  0  0  0  0  0  0  0
    2.1463   -5.3820    0.0000 C   0  0  0  0  0  0  0  0  0  0  0  0
    1.4373   -4.9695    0.0000 C   0  0  0  0  0  0  0  0  0  0  0  0
    1.4373   -4.1445    0.0000 C   0  0  0  0  0  0  0  0  0  0  0  0
    2.1528   -3.7319    0.0000 C   0  0  0  0  0  0  0  0  0  0  0  0
    2.8618   -4.1445    0.0000 C   0  0  0  0  0  0  0  0  0  0  0  0
    2.8618   -4.9630    0.0000 C   0  0  0  0  0  0  0  0  0  0  0  0
    2.1528   -2.9069    0.0000 C   0  0  0  0  0  0  0  0  0  0  0  0
    2.8618   -2.4879    0.0000 O   0  0  0  0  0  0  0  0  0  0  0  0
    1.4373   -2.4879    0.0000 N   0  0  0  0  0  0  0  0  0  0  0  0
    3.5837   -3.7255    0.0000 N   0  0  0  0  0  0  0  0  0  0  0  0
    5.7301   -4.1445    0.0000 C   0  0  0  0  0  0  0  0  0  0  0  0
    5.7301   -4.9695    0.0000 C   0  0  0  0  0  0  0  0  0  0  0  0
    5.0081   -5.3820    0.0000 C   0  0  0  0  0  0  0  0  0  0  0  0
    4.2927   -4.9630    0.0000 C   0  0  0  0  0  0  0  0  0  0  0  0
    4.2991   -4.1445    0.0000 C   0  0  0  0  0  0  0  0  0  0  0  0
    5.0211   -3.7255    0.0000 C   0  0  0  0  0  0  0  0  0  0  0  0
    6.4455   -5.3820    0.0000 Br  0  0  0  0  0  0  0  0  0  0  0  0
    5.0211   -2.8940    0.0000 Cl  0  0  0  0  0  0  0  0  0  0  0  0
    3.5837   -5.3820    0.0000 F   0  0  0  0  0  0  0  0  0  0  0  0
    1.4373   -1.6565    0.0000 O   0  0  0  0  0  0  0  0  0  0  0  0
    0.7155   -1.2504    0.0000 C   0  0  0  0  0  0  0  0  0  0  0  0
    0.7090   -0.4125    0.0000 C   0  0  0  0  0  0  0  0  0  0  0  0
    0.0000    0.0000    0.0000 O   0  0  0  0  0  0  0  0  0  0  0  0
    0.0129   -5.3497    0.0000 C   0  0  0  0  0  0  0  0  0  0  0  0
  1  3  2  0
  1  4  1  0
  2  3  1  0
  2  5  1  0
  2 27  1  0
  4  5  2  0
  4  9  1  0
  5  6  1  0
  6  7  2  0
  7  8  1  0
  7 10  1  0
  8  9  2  0
  8 13  1  0
  9 22  1  0
 10 11  2  0
 10 12  1  0
 12 23  1  0
 13 18  1  0
 14 19  2  0
 14 15  1  0
 15 16  2  0
 15 20  1  0
 16 17  1  0
 17 18  2  0
 18 19  1  0
 19 21  1  0
 23 24  1  0
 24 25  1  0
 25 26  1  0
M  END
>  <Formula>  (189) 
C17H15BrClFN4O3

>  <FW>  (189) 
457.6814

>  <DSSTox_CID>  (189) 
28870

>  <NR-AR>  (189) 
0

>  <NR-AR-LBD>  (189) 
0

>  <NR-ER>  (189) 
1

>  <NR-ER-LBD>  (189) 
1

>  <NR-PPAR-gamma>  (189) 
0

>  <SR-ATAD5>  (189) 
0

>  <SR-MMP>  (189) 
0

>  <SR-p53>  (189) 
0

$$$$
NCGC00182713-01
     RDKit          2D

 34 37  0  0  0  0  0  0  0  0999 V2000
    6.4307   -1.6602    0.0000 C   0  0  0  0  0  0  0  0  0  0  0  0
    6.4307   -2.4902    0.0000 C   0  0  0  0  0  0  0  0  0  0  0  0
    5.7206   -1.2401    0.0000 C   0  0  0  0  0  0  0  0  0  0  0  0
    5.7206   -2.8903    0.0000 C   0  0  0  0  0  0  0  0  0  0  0  0
    5.0005   -1.6602    0.0000 C   0  0  0  0  0  0  0  0  0  0  0  0
    5.0005   -2.4902    0.0000 C   0  0  0  0  0  0  0  0  0  0  0  0
    7.1508   -1.2401    0.0000 N   0  0  0  0  0  0  0  0  0  0  0  0
    7.8608   -1.6602    0.0000 C   0  0  0  0  0  0  0  0  0  0  0  0
    7.1508   -2.8903    0.0000 C   0  0  0  0  0  0  0  0  0  0  0  0
    7.8608   -2.4902    0.0000 N   0  0  0  0  0  0  0  0  0  0  0  0
    4.2804   -1.2401    0.0000 O   0  0  0  0  0  0  0  0  0  0  0  0
    3.5704   -1.6602    0.0000 C   0  0  0  0  0  0  0  0  0  0  0  0
    2.8503   -1.2401    0.0000 C   0  0  0  0  0  0  0  0  0  0  0  0
    2.1502   -1.6501    0.0000 C   0  0  0  0  0  0  0  0  0  0  0  0
    1.4301   -1.2401    0.0000 N   0  0  0  0  0  0  0  0  0  0  0  0
    0.7201   -1.6501    0.0000 C   0  0  0  0  0  0  0  0  0  0  0  0
    1.4301   -0.4200    0.0000 C   0  0  0  0  0  0  0  0  0  0  0  0
    0.0000   -1.2401    0.0000 C   0  0  0  0  0  0  0  0  0  0  0  0
    0.7201    0.0000    0.0000 C   0  0  0  0  0  0  0  0  0  0  0  0
    0.0000   -0.4200    0.0000 O   0  0  0  0  0  0  0  0  0  0  0  0
    4.2804   -2.8903    0.0000 N   0  0  0  0  0  0  0  0  0  0  0  0
    4.2804   -3.7204    0.0000 C   0  0  0  0  0  0  0  0  0  0  0  0
    3.5704   -4.1304    0.0000 C   0  0  0  0  0  0  0  0  0  0  0  0
    5.0005   -4.1404    0.0000 O   0  0  0  0  0  0  0  0  0  0  0  0
    2.8503   -3.7204    0.0000 C   0  0  0  0  0  0  0  0  0  0  0  0
    7.1508   -3.7204    0.0000 N   0  0  0  0  0  0  0  0  0  0  0  0
    7.8608   -4.1404    0.0000 C   0  0  0  0  0  0  0  0  0  0  0  0
    8.5809   -3.7204    0.0000 C   0  0  0  0  0  0  0  0  0  0  0  0
    7.8608   -4.9605    0.0000 C   0  0  0  0  0  0  0  0  0  0  0  0
    9.2810   -4.1404    0.0000 C   0  0  0  0  0  0  0  0  0  0  0  0
    8.5809   -5.3706    0.0000 C   0  0  0  0  0  0  0  0  0  0  0  0
    9.2810   -4.9605    0.0000 C   0  0  0  0  0  0  0  0  0  0  0  0
   10.0010   -3.7204    0.0000 Cl  0  0  0  0  0  0  0  0  0  0  0  0
   10.0010   -5.3706    0.0000 F   0  0  0  0  0  0  0  0  0  0  0  0
  1  3  2  0
  1  7  1  0
  1  2  1  0
  2  4  2  0
  2  9  1  0
  3  5  1  0
  4  6  1  0
  5  6  2  0
  5 11  1  0
  6 21  1  0
  7  8  2  0
  8 10  1  0
  9 10  2  0
  9 26  1  0
 11 12  1  0
 12 13  1  0
 13 14  1  0
 14 15  1  0
 15 16  1  0
 15 17  1  0
 16 18  1  0
 17 19  1  0
 18 20  1  0
 19 20  1  0
 21 22  1  0
 22 23  1  0
 22 24  2  0
 23 25  2  0
 26 27  1  0
 27 28  2  0
 27 29  1  0
 28 30  1  0
 29 31  2  0
 30 32  2  0
 30 33  1  0
 31 32  1  0
 32 34  1  0
M  END
>  <Formula>  (190) 
C24H25ClFN5O3

>  <FW>  (190) 
485.9384

>  <DSSTox_CID>  (190) 
28869

>  <NR-AR>  (190) 
0

>  <NR-ER>  (190) 
1

>  <NR-ER-LBD>  (190) 
1

>  <NR-PPAR-gamma>  (190) 
0

>  <NR-AhR>  (190) 
0

>  <SR-ARE>  (190) 
1

>  <SR-HSE>  (190) 
1

>  <SR-p53>  (190) 
1

$$$$
NCGC00159458-03
     RDKit          2D

 83 88  0  0  1  0  0  0  0  0999 V2000
    3.5791   -3.6046    0.0000 C   0  0  0  0  0  0  0  0  0  0  0  0
    4.2391   -4.0995    0.0000 C   0  0  0  0  0  0  0  0  0  0  0  0
    3.8330   -2.8176    0.0000 C   0  0  0  0  0  0  0  0  0  0  0  0
    4.9118   -3.6046    0.0000 N   0  0  0  0  0  0  0  0  0  0  0  0
    4.6579   -2.8176    0.0000 C   0  0  0  0  0  0  0  0  0  0  0  0
    4.2391   -4.9245    0.0000 C   0  0  0  0  0  0  0  0  0  0  0  0
    4.9626   -5.3307    0.0000 C   0  0  0  0  0  0  0  0  0  0  0  0
    3.5411   -5.3307    0.0000 C   0  0  0  0  0  0  0  0  0  0  0  0
    5.6352   -4.0107    0.0000 C   0  0  0  0  0  0  0  0  0  0  0  0
    6.3333   -3.6046    0.0000 C   0  0  0  0  0  0  0  0  0  0  0  0
    7.0567   -4.0107    0.0000 C   0  0  0  0  0  0  0  0  0  0  0  0
    7.7675   -3.6046    0.0000 C   0  0  0  0  0  0  0  0  0  0  0  0
    8.4910   -4.0107    0.0000 C   0  0  0  0  0  0  0  0  0  0  0  0
    9.2017   -3.6046    0.0000 C   0  0  0  0  0  0  0  0  0  0  0  0
    9.9252   -4.0107    0.0000 C   0  0  0  0  0  0  0  0  0  0  0  0
    7.0567   -4.8357    0.0000 O   0  0  0  0  0  0  0  0  0  0  0  0
    8.4910   -4.8357    0.0000 O   0  0  0  0  0  0  0  0  0  0  0  0
    9.9252   -4.8357    0.0000 O   0  0  0  0  0  0  0  0  0  0  0  0
   10.6359   -3.6046    0.0000 O   0  0  0  0  0  0  0  0  0  0  0  0
    3.3507   -2.1450    0.0000 C   0  0  0  0  0  0  0  0  0  0  0  0
    5.1403   -2.1450    0.0000 C   0  0  0  0  0  0  0  0  0  0  0  0
    6.3841   -1.4342    0.0000 C   0  0  0  0  0  0  0  0  0  0  0  0
    5.9652   -0.7234    0.0000 C   0  0  0  0  0  0  0  0  0  0  0  0
    5.9652   -2.1450    0.0000 C   0  0  0  0  0  0  0  0  0  0  0  0
    5.1403   -0.7234    0.0000 C   0  0  0  0  0  0  0  0  0  0  0  0
    4.7341   -1.4342    0.0000 C   0  0  0  0  0  0  0  0  0  0  0  0
    3.7568   -1.4469    0.0000 C   0  0  0  0  0  0  0  0  0  0  0  0
    3.3507   -0.7234    0.0000 C   0  0  0  0  0  0  0  0  0  0  0  0
    2.5257   -0.7234    0.0000 C   0  0  0  0  0  0  0  0  0  0  0  0
    2.5257   -2.1450    0.0000 C   0  0  0  0  0  0  0  0  0  0  0  0
    2.1069   -1.4469    0.0000 C   0  0  0  0  0  0  0  0  0  0  0  0
    1.4342   -4.8357    0.0000 C   0  0  0  0  0  0  0  0  0  0  0  0
    1.4342   -4.0107    0.0000 C   0  0  0  0  0  0  0  0  0  0  0  0
    0.7234   -5.2672    0.0000 C   0  0  0  0  0  0  0  0  0  0  0  0
    0.7234   -3.6046    0.0000 C   0  0  0  0  0  0  0  0  0  0  0  0
    0.0000   -4.8357    0.0000 C   0  0  0  0  0  0  0  0  0  0  0  0
    0.0000   -4.0107    0.0000 C   0  0  0  0  0  0  0  0  0  0  0  0
    2.1450   -3.6046    0.0000 N   0  0  0  0  0  0  0  0  0  0  0  0
    2.8557   -4.0107    0.0000 C   0  0  0  0  0  0  0  0  0  0  0  0
    2.8557   -4.8357    0.0000 O   0  0  0  0  0  0  0  0  0  0  0  0
    6.3841    0.0000    0.0000 F   0  0  0  0  0  0  0  0  0  0  0  0
    3.6172   -9.0875    0.0000 C   0  0  0  0  0  0  0  0  0  0  0  0
    4.2772   -8.5925    0.0000 C   0  0  0  0  0  0  0  0  0  0  0  0
    3.8584   -9.8744    0.0000 C   0  0  0  0  0  0  0  0  0  0  0  0
    4.9499   -9.0875    0.0000 N   0  0  0  0  0  0  0  0  0  0  0  0
    4.6960   -9.8744    0.0000 C   0  0  0  0  0  0  0  0  0  0  0  0
    4.2772   -7.7675    0.0000 C   0  0  0  0  0  0  0  0  0  0  0  0
    5.0007   -7.3614    0.0000 C   0  0  0  0  0  0  0  0  0  0  0  0
    3.5791   -7.3614    0.0000 C   0  0  0  0  0  0  0  0  0  0  0  0
    5.6733   -8.6813    0.0000 C   0  0  0  0  0  0  0  0  0  0  0  0
    6.3714   -9.0875    0.0000 C   0  0  0  0  0  0  0  0  0  0  0  0
    7.0948   -8.6813    0.0000 C   0  0  0  0  0  0  0  0  0  0  0  0
    7.8056   -9.0875    0.0000 C   0  0  0  0  0  0  0  0  0  0  0  0
    8.5291   -8.6813    0.0000 C   0  0  0  0  0  0  0  0  0  0  0  0
    9.2271   -9.0875    0.0000 C   0  0  0  0  0  0  0  0  0  0  0  0
    9.9505   -8.6813    0.0000 C   0  0  0  0  0  0  0  0  0  0  0  0
    7.0948   -7.8563    0.0000 O   0  0  0  0  0  0  0  0  0  0  0  0
    8.5291   -7.8563    0.0000 O   0  0  0  0  0  0  0  0  0  0  0  0
    9.9505   -7.8563    0.0000 O   0  0  0  0  0  0  0  0  0  0  0  0
   10.6613   -9.0875    0.0000 O   0  0  0  0  0  0  0  0  0  0  0  0
    3.3761  -10.5471    0.0000 C   0  0  0  0  0  0  0  0  0  0  0  0
    5.1783  -10.5471    0.0000 C   0  0  0  0  0  0  0  0  0  0  0  0
    6.4222  -11.2578    0.0000 C   0  0  0  0  0  0  0  0  0  0  0  0
    6.0033  -11.9686    0.0000 C   0  0  0  0  0  0  0  0  0  0  0  0
    6.0033  -10.5471    0.0000 C   0  0  0  0  0  0  0  0  0  0  0  0
    5.1783  -11.9686    0.0000 C   0  0  0  0  0  0  0  0  0  0  0  0
    4.7595  -11.2578    0.0000 C   0  0  0  0  0  0  0  0  0  0  0  0
    3.7822  -11.2451    0.0000 C   0  0  0  0  0  0  0  0  0  0  0  0
    3.3761  -11.9686    0.0000 C   0  0  0  0  0  0  0  0  0  0  0  0
    2.5511  -11.9686    0.0000 C   0  0  0  0  0  0  0  0  0  0  0  0
    2.5511  -10.5471    0.0000 C   0  0  0  0  0  0  0  0  0  0  0  0
    2.1322  -11.2451    0.0000 C   0  0  0  0  0  0  0  0  0  0  0  0
    1.4723   -7.8563    0.0000 C   0  0  0  0  0  0  0  0  0  0  0  0
    1.4723   -8.6813    0.0000 C   0  0  0  0  0  0  0  0  0  0  0  0
    0.7615   -7.4248    0.0000 C   0  0  0  0  0  0  0  0  0  0  0  0
    0.7615   -9.0875    0.0000 C   0  0  0  0  0  0  0  0  0  0  0  0
    0.0381   -7.8563    0.0000 C   0  0  0  0  0  0  0  0  0  0  0  0
    0.0381   -8.6813    0.0000 C   0  0  0  0  0  0  0  0  0  0  0  0
    2.1830   -9.0875    0.0000 N   0  0  0  0  0  0  0  0  0  0  0  0
    2.8938   -8.6813    0.0000 C   0  0  0  0  0  0  0  0  0  0  0  0
    2.8938   -7.8563    0.0000 O   0  0  0  0  0  0  0  0  0  0  0  0
    6.4222  -12.6920    0.0000 F   0  0  0  0  0  0  0  0  0  0  0  0
    9.9252   -6.3460    0.0000 Ca  0  0  0  0  0 15  0  0  0  0  0  0
  1  2  2  0
  1  3  1  0
  1 39  1  0
  2  4  1  0
  2  6  1  0
  3  5  2  0
  3 20  1  0
  4  5  1  0
  4  9  1  0
  5 21  1  0
  6  7  1  0
  6  8  1  0
  9 10  1  0
 10 11  1  0
 11 12  1  0
 11 16  1  6
 12 13  1  0
 13 14  1  0
 13 17  1  6
 14 15  1  0
 15 18  1  0
 15 19  2  0
 20 27  2  0
 20 30  1  0
 21 24  2  0
 21 26  1  0
 22 23  2  0
 22 24  1  0
 23 25  1  0
 23 41  1  0
 25 26  2  0
 27 28  1  0
 28 29  2  0
 29 31  1  0
 30 31  2  0
 32 33  2  0
 32 34  1  0
 33 35  1  0
 33 38  1  0
 34 36  2  0
 35 37  2  0
 36 37  1  0
 38 39  1  0
 39 40  2  0
 42 43  2  0
 42 44  1  0
 42 80  1  0
 43 45  1  0
 43 47  1  0
 44 46  2  0
 44 61  1  0
 45 46  1  0
 45 50  1  0
 46 62  1  0
 47 48  1  0
 47 49  1  0
 50 51  1  0
 51 52  1  0
 52 53  1  0
 52 57  1  1
 53 54  1  0
 54 55  1  0
 54 58  1  1
 55 56  1  0
 56 59  1  0
 56 60  2  0
 61 68  2  0
 61 71  1  0
 62 65  2  0
 62 67  1  0
 63 64  2  0
 63 65  1  0
 64 66  1  0
 64 82  1  0
 66 67  2  0
 68 69  1  0
 69 70  2  0
 70 72  1  0
 71 72  2  0
 73 74  2  0
 73 75  1  0
 74 76  1  0
 74 79  1  0
 75 77  2  0
 76 78  2  0
 77 78  1  0
 79 80  1  0
 80 81  2  0
M  CHG  3  18  -1  59  -1  83   2
M  END
>  <Formula>  (191) 
C66H68CaF2N4O10

>  <FW>  (191) 
1155.3417 (557.6324+557.6324+40.0769)

>  <DSSTox_CID>  (191) 
24303

>  <NR-AR>  (191) 
0

>  <NR-AR-LBD>  (191) 
0

>  <NR-ER>  (191) 
1

>  <NR-ER-LBD>  (191) 
0

>  <NR-PPAR-gamma>  (191) 
0

>  <NR-AhR>  (191) 
0

>  <SR-ATAD5>  (191) 
0

>  <SR-p53>  (191) 
0

$$$$
NCGC00254070-01
     RDKit          2D

 31 34  0  0  0  0  0  0  0  0999 V2000
    3.1406   -3.7865    0.0000 N   0  0  0  0  0  0  0  0  0  0  0  0
    3.8026   -3.2940    0.0000 C   0  0  0  0  0  0  0  0  0  0  0  0
    3.3828   -4.5696    0.0000 N   0  0  0  0  0  0  0  0  0  0  0  0
    4.4727   -3.7865    0.0000 C   0  0  0  0  0  0  0  0  0  0  0  0
    4.2144   -4.5696    0.0000 C   0  0  0  0  0  0  0  0  0  0  0  0
    3.8026   -2.4705    0.0000 C   0  0  0  0  0  0  0  0  0  0  0  0
    3.0922   -2.0668    0.0000 C   0  0  0  0  0  0  0  0  0  0  0  0
    4.5212   -2.0668    0.0000 C   0  0  0  0  0  0  0  0  0  0  0  0
    3.0922   -1.2434    0.0000 C   0  0  0  0  0  0  0  0  0  0  0  0
    4.5212   -1.2434    0.0000 C   0  0  0  0  0  0  0  0  0  0  0  0
    3.8026   -0.8235    0.0000 C   0  0  0  0  0  0  0  0  0  0  0  0
    2.3575   -3.5282    0.0000 C   0  0  0  0  0  0  0  0  0  0  0  0
    1.7358   -4.0852    0.0000 C   0  0  0  0  0  0  0  0  0  0  0  0
    2.1879   -2.7208    0.0000 C   0  0  0  0  0  0  0  0  0  0  0  0
    0.9527   -3.8269    0.0000 C   0  0  0  0  0  0  0  0  0  0  0  0
    1.3967   -2.4624    0.0000 C   0  0  0  0  0  0  0  0  0  0  0  0
    0.7831   -3.0195    0.0000 C   0  0  0  0  0  0  0  0  0  0  0  0
    3.8026    0.0000    0.0000 Br  0  0  0  0  0  0  0  0  0  0  0  0
    0.0000   -2.7612    0.0000 Cl  0  0  0  0  0  0  0  0  0  0  0  0
    1.9054   -4.8845    0.0000 Cl  0  0  0  0  0  0  0  0  0  0  0  0
    5.2559   -3.5282    0.0000 C   0  0  0  0  0  0  0  0  0  0  0  0
    5.8694   -4.0852    0.0000 C   0  0  0  0  0  0  0  0  0  0  0  0
    4.6988   -5.2317    0.0000 C   0  0  0  0  0  0  0  0  0  0  0  0
    4.3597   -5.9906    0.0000 N   0  0  0  0  0  0  0  0  0  0  0  0
    5.5223   -5.1429    0.0000 O   0  0  0  0  0  0  0  0  0  0  0  0
    4.8441   -6.6526    0.0000 N   0  0  0  0  0  0  0  0  0  0  0  0
    5.6676   -6.5638    0.0000 C   0  0  0  0  0  0  0  0  0  0  0  0
    4.5050   -7.4115    0.0000 C   0  0  0  0  0  0  0  0  0  0  0  0
    6.1440   -7.2419    0.0000 C   0  0  0  0  0  0  0  0  0  0  0  0
    4.9975   -8.0735    0.0000 C   0  0  0  0  0  0  0  0  0  0  0  0
    5.8210   -7.9847    0.0000 C   0  0  0  0  0  0  0  0  0  0  0  0
  1  2  1  0
  1  3  1  0
  1 12  1  0
  2  4  2  0
  2  6  1  0
  3  5  2  0
  4  5  1  0
  4 21  1  0
  5 23  1  0
  6  7  2  0
  6  8  1  0
  7  9  1  0
  8 10  2  0
  9 11  2  0
 10 11  1  0
 11 18  1  0
 12 13  2  0
 12 14  1  0
 13 15  1  0
 13 20  1  0
 14 16  2  0
 15 17  2  0
 16 17  1  0
 17 19  1  0
 21 22  1  0
 23 24  1  0
 23 25  2  0
 24 26  1  0
 26 27  1  0
 26 28  1  0
 27 29  1  0
 28 30  1  0
 29 31  1  0
 30 31  1  0
M  END
>  <Formula>  (192) 
C23H23BrCl2N4O

>  <FW>  (192) 
522.2649

>  <DSSTox_CID>  (192) 
27357

>  <NR-Aromatase>  (192) 
1

>  <NR-AR>  (192) 
0

>  <NR-ER>  (192) 
1

>  <NR-ER-LBD>  (192) 
0

>  <NR-AhR>  (192) 
0

>  <SR-ARE>  (192) 
1

>  <SR-ATAD5>  (192) 
0

>  <SR-HSE>  (192) 
0

>  <SR-MMP>  (192) 
1

$$$$
NCGC00167580-01
     RDKit          2D

 53 50  0  0  1  0  0  0  0  0999 V2000
    9.4007   -5.3266    0.0000 Li  0  0  0  0  0 15  0  0  0  0  0  0
    8.9256   -1.3820    0.0000 Li  0  0  0  0  0 15  0  0  0  0  0  0
   10.6963   -1.5404    0.0000 Li  0  0  0  0  0 15  0  0  0  0  0  0
    3.9589   -4.5348    0.0000 O   0  0  0  0  0  0  0  0  0  0  0  0
    2.2458   -4.4484    0.0000 O   0  0  0  0  0  0  0  0  0  0  0  0
   13.9210   -2.2890    0.0000 N   0  0  0  0  0  0  0  0  0  0  0  0
   13.9210   -3.6134    0.0000 C   0  0  0  0  0  0  0  0  0  0  0  0
   13.1436   -2.0586    0.0000 C   0  0  0  0  0  0  0  0  0  0  0  0
   13.1436   -1.2381    0.0000 C   0  0  0  0  0  0  0  0  0  0  0  0
   13.6763   -4.3620    0.0000 C   0  0  0  0  0  0  0  0  0  0  0  0
   12.8413   -4.3620    0.0000 C   0  0  0  0  0  0  0  0  0  0  0  0
   13.9210   -0.9789    0.0000 N   0  0  0  0  0  0  0  0  0  0  0  0
   14.3961   -1.6268    0.0000 C   0  0  0  0  0  0  0  0  0  0  0  0
   13.2444   -3.1239    0.0000 O   0  0  0  0  0  0  0  0  0  0  0  0
   12.6110   -3.5990    0.0000 C   0  0  0  0  0  0  0  0  0  0  0  0
   12.4526   -0.8350    0.0000 C   0  0  0  0  0  0  0  0  0  0  0  0
   12.4382   -2.4329    0.0000 N   0  0  0  0  0  0  0  0  0  0  0  0
   12.3662   -5.0098    0.0000 O   0  0  0  0  0  0  0  0  0  0  0  0
   11.8192   -1.2093    0.0000 N   0  0  0  0  0  0  0  0  0  0  0  0
   11.8767   -3.3543    0.0000 C   0  0  0  0  0  0  0  0  0  0  0  0
   11.8192   -2.0154    0.0000 C   0  0  0  0  0  0  0  0  0  0  0  0
   11.5313   -2.6201    0.0000 O   0  0  0  0  0  0  0  0  0  0  0  0
   14.1514   -5.0386    0.0000 O   0  0  0  0  0  0  0  0  0  0  0  0
   12.4526    0.0000    0.0000 N   0  0  0  0  0  0  0  0  0  0  0  0
   11.6464   -5.4273    0.0000 P   0  0  0  0  0  0  0  0  0  0  0  0
   10.8114   -5.4417    0.0000 O   0  0  0  0  0  0  0  0  0  0  0  0
   11.6464   -6.2623    0.0000 O   0  0  0  0  0  0  0  0  0  0  0  0
   11.6752   -4.6067    0.0000 O   0  0  0  0  0  0  0  0  0  0  0  0
   10.8114   -3.0232    0.0000 P   0  0  0  0  0  0  0  0  0  0  0  0
   10.0773   -2.6201    0.0000 O   0  0  0  0  0  0  0  0  0  0  0  0
   10.8114   -3.8725    0.0000 O   0  0  0  0  0  0  0  0  0  0  0  0
   10.8258   -2.2026    0.0000 O   0  0  0  0  0  0  0  0  0  0  0  0
    9.3574   -3.0232    0.0000 P   0  0  0  0  0  0  0  0  0  0  0  0
    8.6376   -2.6201    0.0000 O   0  0  0  0  0  0  0  0  0  0  0  0
    9.3574   -3.8725    0.0000 O   0  0  0  0  0  0  0  0  0  0  0  0
    9.3430   -2.2026    0.0000 O   0  0  0  0  0  0  0  0  0  0  0  0
    0.7198   -3.0232    0.0000 C   0  0  0  0  0  0  0  0  0  0  0  0
    1.4540   -2.6201    0.0000 C   0  0  0  0  0  0  0  0  0  0  0  0
    2.1594   -3.0232    0.0000 N   0  0  0  0  0  0  0  0  0  0  0  0
    2.8792   -2.6201    0.0000 C   0  0  0  0  0  0  0  0  0  0  0  0
    3.5990   -3.0232    0.0000 C   0  0  0  0  0  0  0  0  0  0  0  0
    4.3188   -2.6201    0.0000 C   0  0  0  0  0  0  0  0  0  0  0  0
    5.0386   -3.0232    0.0000 N   0  0  0  0  0  0  0  0  0  0  0  0
    5.7728   -2.6201    0.0000 C   0  0  0  0  0  0  0  0  0  0  0  0
    6.4926   -3.0232    0.0000 C   0  0  0  0  0  0  0  0  0  0  0  0
    7.1980   -2.6201    0.0000 C   0  0  0  0  0  0  0  0  0  0  0  0
    7.9179   -3.0232    0.0000 C   0  0  0  0  0  0  0  0  0  0  0  0
    7.6155   -1.8859    0.0000 C   0  0  0  0  0  0  0  0  0  0  0  0
    6.9965   -1.7995    0.0000 C   0  0  0  0  0  0  0  0  0  0  0  0
    6.4926   -3.8725    0.0000 O   0  0  0  0  0  0  0  0  0  0  0  0
    5.7728   -1.7851    0.0000 O   0  0  0  0  0  0  0  0  0  0  0  0
    2.8792   -1.7851    0.0000 O   0  0  0  0  0  0  0  0  0  0  0  0
    0.0000   -2.6201    0.0000 S   0  0  0  0  0  0  0  0  0  0  0  0
  7  6  1  1
  6  8  1  0
  6 13  1  0
  7 10  1  0
  7 14  1  0
  8  9  2  0
  8 17  1  0
  9 16  1  0
  9 12  1  0
 10 11  1  0
 10 23  1  6
 11 18  1  6
 11 15  1  0
 12 13  2  0
 14 15  1  0
 15 20  1  1
 16 24  1  0
 16 19  2  0
 17 21  2  0
 18 25  1  0
 19 21  1  0
 20 22  1  0
 22 29  1  0
 25 26  1  0
 25 27  2  0
 25 28  1  0
 29 30  1  0
 29 31  2  0
 29 32  1  0
 30 33  1  0
 33 34  1  0
 33 35  2  0
 33 36  1  0
 34 47  1  0
 37 38  1  0
 37 53  1  0
 38 39  1  0
 39 40  1  0
 40 41  1  0
 40 52  2  0
 41 42  1  0
 42 43  1  0
 43 44  1  0
 44 45  1  0
 44 51  2  0
 45 46  1  0
 45 50  1  0
 46 47  1  0
 46 48  1  0
 46 49  1  0
M  CHG  6   1   1   2   1   3   1  26  -1  32  -1  36  -1
M  END
>  <Formula>  (193) 
C21H37Li3N7O18P3S

>  <FW>  (193) 
821.3639 (6.9405+6.9405+6.9405+18.0153+18.0153+764.5120)

>  <DSSTox_CID>  (193) 
26729

>  <NR-Aromatase>  (193) 
0

>  <NR-AR>  (193) 
0

>  <NR-AR-LBD>  (193) 
0

>  <NR-ER>  (193) 
1

>  <NR-ER-LBD>  (193) 
0

>  <NR-PPAR-gamma>  (193) 
0

>  <SR-ATAD5>  (193) 
0

>  <SR-MMP>  (193) 
0

>  <SR-p53>  (193) 
0

$$$$
NCGC00094476-03
     RDKit          2D

 25 28  0  0  1  0  0  0  0  0999 V2000
    2.1378   -4.9652    0.0000 C   0  0  0  0  0  0  0  0  0  0  0  0
    2.1378   -3.3082    0.0000 C   0  0  0  0  0  0  0  0  0  0  0  0
    2.8563   -3.7137    0.0000 C   0  0  0  0  0  0  0  0  0  0  0  0
    1.4310   -3.7137    0.0000 C   0  0  0  0  0  0  0  0  0  0  0  0
    3.5689   -3.3082    0.0000 N   0  0  0  0  0  0  0  0  0  0  0  0
    1.4310   -4.5538    0.0000 C   0  0  0  0  0  0  0  0  0  0  0  0
    3.5689   -0.8285    0.0000 C   0  0  0  0  0  0  0  0  0  0  0  0
    2.8563   -4.5538    0.0000 C   0  0  0  0  0  0  0  0  0  0  0  0
    2.1378   -5.7936    0.0000 C   0  0  0  0  0  0  0  0  0  0  0  0
    0.7068   -5.7936    0.0000 N   0  0  0  0  0  0  0  0  0  0  0  0
    2.8563   -1.2398    0.0000 N   0  0  0  0  0  0  0  0  0  0  0  0
    2.8563   -2.0799    0.0000 C   0  0  0  0  0  0  0  0  0  0  0  0
    0.7068   -4.9652    0.0000 C   0  0  0  0  0  0  0  0  0  0  0  0
    3.5689   -2.4855    0.0000 C   0  0  0  0  0  0  0  0  0  0  0  0
    2.1378   -2.4855    0.0000 C   0  0  0  0  0  0  0  0  0  0  0  0
    4.2873   -1.2398    0.0000 N   0  0  0  0  0  0  0  0  0  0  0  0
    3.5689    0.0000    0.0000 O   0  0  0  0  0  0  0  0  0  0  0  0
    0.7068   -3.3082    0.0000 C   0  0  0  0  0  0  0  0  0  0  0  0
    4.2873   -3.7369    0.0000 C   0  0  0  0  0  0  0  0  0  0  0  0
    0.0000   -3.7137    0.0000 C   0  0  0  0  0  0  0  0  0  0  0  0
    0.0000   -4.5538    0.0000 C   0  0  0  0  0  0  0  0  0  0  0  0
    4.2873   -2.0799    0.0000 C   0  0  0  0  0  0  0  0  0  0  0  0
    4.9941   -0.8285    0.0000 C   0  0  0  0  0  0  0  0  0  0  0  0
    4.9941   -2.4855    0.0000 C   0  0  0  0  0  0  0  0  0  0  0  0
    4.9941    0.0000    0.0000 C   0  0  0  0  0  0  0  0  0  0  0  0
  1  6  1  0
  1  8  1  0
  1  9  2  0
  2  3  1  0
  2 15  1  1
  2  4  1  0
  3  8  1  6
  3  5  1  0
  4  6  2  0
  4 18  1  0
  5 14  1  0
  5 19  1  0
  6 13  1  0
  7 11  1  0
  7 16  1  0
  7 17  2  0
  9 10  1  0
 10 13  1  0
 12 11  1  6
 12 14  1  0
 12 15  1  0
 13 21  2  0
 16 22  1  0
 16 23  1  0
 18 20  2  0
 20 21  1  0
 22 24  1  0
 23 25  1  0
M  END
>  <Formula>  (194) 
C20H28N4O

>  <FW>  (194) 
340.4625

>  <DSSTox_CID>  (194) 
25809

>  <NR-Aromatase>  (194) 
0

>  <NR-AR>  (194) 
0

>  <NR-ER>  (194) 
1

>  <NR-ER-LBD>  (194) 
0

>  <NR-PPAR-gamma>  (194) 
0

>  <NR-AhR>  (194) 
1

>  <SR-ATAD5>  (194) 
0

>  <SR-MMP>  (194) 
0

>  <SR-p53>  (194) 
0

$$$$
NCGC00095256-01
     RDKit          2D

 29 32  0  0  1  0  0  0  0  0999 V2000
    2.1379   -4.1153    0.0000 C   0  0  0  0  0  0  0  0  0  0  0  0
    2.1379   -4.9499    0.0000 C   0  0  0  0  0  0  0  0  0  0  0  0
    1.4317   -3.6980    0.0000 C   0  0  0  0  0  0  0  0  0  0  0  0
    1.4317   -5.3480    0.0000 C   0  0  0  0  0  0  0  0  0  0  0  0
    0.7127   -4.1153    0.0000 C   0  0  0  0  0  0  0  0  0  0  0  0
    0.7127   -4.9499    0.0000 C   0  0  0  0  0  0  0  0  0  0  0  0
    3.5696   -4.1153    0.0000 C   0  0  0  0  0  0  0  0  0  0  0  0
    3.5696   -4.9499    0.0000 C   0  0  0  0  0  0  0  0  0  0  0  0
    2.8505   -3.6980    0.0000 C   0  0  0  0  0  0  0  0  0  0  0  0
    2.8505   -5.3480    0.0000 N   0  0  0  0  0  0  0  0  0  0  0  0
    2.8505   -2.8826    0.0000 C   0  0  0  0  0  0  0  0  0  0  0  0
    3.5696   -2.4782    0.0000 C   0  0  0  0  0  0  0  0  0  0  0  0
    3.5696   -1.6500    0.0000 C   0  0  0  0  0  0  0  0  0  0  0  0
    4.2758   -2.8826    0.0000 N   0  0  0  0  0  0  0  0  0  0  0  0
    4.2758   -1.2455    0.0000 C   0  0  0  0  0  0  0  0  0  0  0  0
    4.9884   -2.4782    0.0000 C   0  0  0  0  0  0  0  0  0  0  0  0
    4.9884   -1.6500    0.0000 C   0  0  0  0  0  0  0  0  0  0  0  0
    5.7075   -1.2455    0.0000 C   0  0  0  0  0  0  0  0  0  0  0  0
    6.4201   -1.6500    0.0000 C   0  0  0  0  0  0  0  0  0  0  0  0
    3.8585   -1.8683    0.0000 C   0  0  0  0  0  0  0  0  0  0  0  0
    4.7188   -2.1186    0.0000 C   0  0  0  0  0  0  0  0  0  0  0  0
    2.1379   -2.4782    0.0000 O   0  0  0  0  0  0  0  0  0  0  0  0
    0.0000   -3.6980    0.0000 O   0  0  0  0  0  0  0  0  0  0  0  0
    0.0000   -2.8762    0.0000 C   0  0  0  0  0  0  0  0  0  0  0  0
    2.1379   -1.6500    0.0000 C   0  0  0  0  0  0  0  0  0  0  0  0
    2.8505   -1.2327    0.0000 O   0  0  0  0  0  0  0  0  0  0  0  0
    1.4188   -1.2455    0.0000 O   0  0  0  0  0  0  0  0  0  0  0  0
    1.4188   -0.4173    0.0000 C   0  0  0  0  0  0  0  0  0  0  0  0
    2.1250    0.0000    0.0000 C   0  0  0  0  0  0  0  0  0  0  0  0
  1  3  2  0
  1  9  1  0
  1  2  1  0
  2  4  2  0
  2 10  1  0
  3  5  1  0
  4  6  1  0
  5  6  2  0
  5 23  1  0
  7  8  1  0
  7  9  2  0
  8 10  2  0
  9 11  1  0
 11 12  1  0
 11 22  1  1
 12 13  1  6
 12 14  1  0
 15 13  1  1
 14 16  1  1
 14 21  1  0
 15 17  1  0
 15 20  1  0
 16 17  1  0
 17 18  1  1
 18 19  2  0
 20 21  1  0
 22 25  1  0
 23 24  1  0
 25 26  2  0
 25 27  1  0
 27 28  1  0
 28 29  1  0
M  END
>  <Formula>  (195) 
C23H28N2O4

>  <FW>  (195) 
396.4794

>  <DSSTox_CID>  (195) 
25965

>  <NR-Aromatase>  (195) 
0

>  <NR-AR>  (195) 
1

>  <NR-AR-LBD>  (195) 
1

>  <NR-ER>  (195) 
1

>  <NR-ER-LBD>  (195) 
0

>  <NR-PPAR-gamma>  (195) 
0

>  <SR-ATAD5>  (195) 
0

>  <SR-MMP>  (195) 
0

>  <SR-p53>  (195) 
0

$$$$
NCGC00166310-01
     RDKit          2D

 26 29  0  0  0  0  0  0  0  0999 V2000
    4.5411   -2.1479    0.0000 C   0  0  0  0  0  0  0  0  0  0  0  0
    3.7161   -2.1479    0.0000 C   0  0  0  0  0  0  0  0  0  0  0  0
    4.9573   -1.4344    0.0000 C   0  0  0  0  0  0  0  0  0  0  0  0
    4.9573   -2.8614    0.0000 N   0  0  0  0  0  0  0  0  0  0  0  0
    3.3073   -1.4344    0.0000 C   0  0  0  0  0  0  0  0  0  0  0  0
    3.3073   -2.8614    0.0000 O   0  0  0  0  0  0  0  0  0  0  0  0
    5.7823   -1.4344    0.0000 C   0  0  0  0  0  0  0  0  0  0  0  0
    4.5411   -0.7209    0.0000 C   0  0  0  0  0  0  0  0  0  0  0  0
    5.7823   -2.8614    0.0000 C   0  0  0  0  0  0  0  0  0  0  0  0
    4.5411   -3.5823    0.0000 N   0  0  0  0  0  0  0  0  0  0  0  0
    2.4972   -1.4344    0.0000 N   0  0  0  0  0  0  0  0  0  0  0  0
    3.7161   -0.7209    0.0000 C   0  0  0  0  0  0  0  0  0  0  0  0
    3.7161   -3.5823    0.0000 C   0  0  0  0  0  0  0  0  0  0  0  0
    6.1985   -2.1479    0.0000 C   0  0  0  0  0  0  0  0  0  0  0  0
    6.1985   -0.7209    0.0000 O   0  0  0  0  0  0  0  0  0  0  0  0
    4.9573   -4.2958    0.0000 C   0  0  0  0  0  0  0  0  0  0  0  0
    2.0661   -2.1479    0.0000 C   0  0  0  0  0  0  0  0  0  0  0  0
    2.0661   -0.7209    0.0000 C   0  0  0  0  0  0  0  0  0  0  0  0
    3.3073    0.0000    0.0000 F   0  0  0  0  0  0  0  0  0  0  0  0
    7.0235   -2.1479    0.0000 C   0  0  0  0  0  0  0  0  0  0  0  0
    1.2412   -2.1479    0.0000 C   0  0  0  0  0  0  0  0  0  0  0  0
    1.2412   -0.7209    0.0000 C   0  0  0  0  0  0  0  0  0  0  0  0
    7.4322   -1.4344    0.0000 O   0  0  0  0  0  0  0  0  0  0  0  0
    7.4322   -2.8614    0.0000 O   0  0  0  0  0  0  0  0  0  0  0  0
    0.8250   -1.4344    0.0000 N   0  0  0  0  0  0  0  0  0  0  0  0
    0.0000   -1.4344    0.0000 C   0  0  0  0  0  0  0  0  0  0  0  0
  1  2  2  0
  1  3  1  0
  1  4  1  0
  2  5  1  0
  2  6  1  0
  3  7  1  0
  3  8  2  0
  4  9  1  0
  4 10  1  0
  5 11  1  0
  5 12  2  0
  6 13  1  0
  7 14  1  0
  7 15  2  0
  8 12  1  0
  9 14  2  0
 10 16  1  0
 10 13  1  0
 11 17  1  0
 11 18  1  0
 12 19  1  0
 14 20  1  0
 17 21  1  0
 18 22  1  0
 20 23  1  0
 20 24  2  0
 21 25  1  0
 22 25  1  0
 25 26  1  0
M  END
>  <Formula>  (196) 
C17H19FN4O4

>  <FW>  (196) 
362.3556

>  <DSSTox_CID>  (196) 
26600

>  <NR-Aromatase>  (196) 
0

>  <NR-AR>  (196) 
0

>  <NR-AR-LBD>  (196) 
0

>  <NR-ER>  (196) 
1

>  <NR-ER-LBD>  (196) 
0

>  <NR-PPAR-gamma>  (196) 
0

>  <NR-AhR>  (196) 
0

>  <SR-ATAD5>  (196) 
0

>  <SR-p53>  (196) 
0

$$$$
NCGC00095714-01
     RDKit          2D

 34 40  0  0  1  0  0  0  0  0999 V2000
    3.7126   -3.3079    0.0000 C   0  0  0  0  0  0  0  0  0  0  0  0
    4.4282   -3.7244    0.0000 C   0  0  0  0  0  0  0  0  0  0  0  0
    3.0029   -3.7361    0.0000 C   0  0  0  0  0  0  0  0  0  0  0  0
    3.7126   -2.4986    0.0000 C   0  0  0  0  0  0  0  0  0  0  0  0
    3.7126   -4.1232    0.0000 O   0  0  0  0  0  0  0  0  0  0  0  0
    1.5777   -3.7537    0.0000 C   0  0  0  0  0  0  0  0  0  0  0  0
    2.2815   -3.3079    0.0000 C   0  0  0  0  0  0  0  0  0  0  0  0
    5.1320   -3.3079    0.0000 C   0  0  0  0  0  0  0  0  0  0  0  0
    1.5777   -4.5396    0.0000 C   0  0  0  0  0  0  0  0  0  0  0  0
    4.4282   -2.0880    0.0000 C   0  0  0  0  0  0  0  0  0  0  0  0
    3.0029   -4.5279    0.0000 C   0  0  0  0  0  0  0  0  0  0  0  0
    5.1320   -2.5044    0.0000 O   0  0  0  0  0  0  0  0  0  0  0  0
    0.1584   -3.7361    0.0000 C   0  0  0  0  0  0  0  0  0  0  0  0
    0.8739   -4.9619    0.0000 C   0  0  0  0  0  0  0  0  0  0  0  0
    0.1584   -4.5279    0.0000 O   0  0  0  0  0  0  0  0  0  0  0  0
    2.2815   -4.9619    0.0000 C   0  0  0  0  0  0  0  0  0  0  0  0
    4.4282   -1.2669    0.0000 C   0  0  0  0  0  0  0  0  0  0  0  0
    0.0117   -3.0029    0.0000 C   0  0  0  0  0  0  0  0  0  0  0  0
    2.9795   -2.0880    0.0000 C   0  0  0  0  0  0  0  0  0  0  0  0
    1.7067   -2.9795    0.0000 C   0  0  0  0  0  0  0  0  0  0  0  0
    0.4282   -2.2463    0.0000 C   0  0  0  0  0  0  0  0  0  0  0  0
    2.2815   -2.4986    0.0000 C   0  0  0  0  0  0  0  0  0  0  0  0
    1.2669   -2.2288    0.0000 O   0  0  0  0  0  0  0  0  0  0  0  0
    5.8652   -3.7068    0.0000 O   0  0  0  0  0  0  0  0  0  0  0  0
    3.7361   -0.7448    0.0000 C   0  0  0  0  0  0  0  0  0  0  0  0
    3.7361   -4.9326    0.0000 O   0  0  0  0  0  0  0  0  0  0  0  0
    5.0733   -0.7918    0.0000 C   0  0  0  0  0  0  0  0  0  0  0  0
    4.0000    0.0000    0.0000 O   0  0  0  0  0  0  0  0  0  0  0  0
    4.8035    0.0000    0.0000 C   0  0  0  0  0  0  0  0  0  0  0  0
    0.0000   -1.5132    0.0000 O   0  0  0  0  0  0  0  0  0  0  0  0
    3.0029   -2.9032    0.0000 C   0  0  0  0  0  0  0  0  0  0  0  0
    3.7126   -1.6657    0.0000 C   0  0  0  0  0  0  0  0  0  0  0  0
    0.1877   -5.4663    0.0000 C   0  0  0  0  0  0  0  0  0  0  0  0
    0.8739   -5.7654    0.0000 C   0  0  0  0  0  0  0  0  0  0  0  0
  1  2  1  0
  1  3  1  0
  1  4  1  0
  1  5  1  1
  2  8  1  0
  2  5  1  1
  3  7  1  0
  3 11  1  0
  3 31  1  1
  4 10  1  0
  4 19  1  0
  4 32  1  6
  6  7  1  0
  6 13  1  0
  6 20  1  1
  6  9  1  0
  7 22  1  1
  8 24  2  0
  8 12  1  0
  9 16  1  1
  9 14  1  0
 10 12  1  6
 10 17  1  0
 11 16  1  0
 11 26  2  0
 13 15  1  0
 13 18  1  1
 14 33  1  0
 14 34  1  0
 14 15  1  0
 17 25  2  0
 17 27  1  0
 18 21  1  0
 19 22  1  0
 20 23  1  0
 21 23  1  0
 21 30  2  0
 25 28  1  0
 27 29  2  0
 28 29  1  0
M  END
>  <Formula>  (197) 
C26H30O8

>  <FW>  (197) 
470.5116

>  <DSSTox_CID>  (197) 
25985

>  <NR-AR>  (197) 
1

>  <NR-AR-LBD>  (197) 
0

>  <NR-ER>  (197) 
1

>  <NR-ER-LBD>  (197) 
0

>  <NR-PPAR-gamma>  (197) 
0

>  <NR-AhR>  (197) 
0

>  <SR-ATAD5>  (197) 
0

>  <SR-MMP>  (197) 
0

>  <SR-p53>  (197) 
0

$$$$
NCGC00167470-01
     RDKit          2D

 36 39  0  0  1  0  0  0  0  0999 V2000
    9.1308   -2.2132    0.0000 N   0  0  0  0  0  0  0  0  0  0  0  0
    1.5527   -0.8227    0.0000 N   0  0  0  0  0  0  0  0  0  0  0  0
    2.8968   -0.8227    0.0000 N   0  0  0  0  0  0  0  0  0  0  0  0
    2.2248   -1.2978    0.0000 C   0  0  0  0  0  0  0  0  0  0  0  0
    9.1308   -1.1935    0.0000 C   0  0  0  0  0  0  0  0  0  0  0  0
    8.1111   -2.2132    0.0000 C   0  0  0  0  0  0  0  0  0  0  0  0
    8.1111   -1.1935    0.0000 C   0  0  0  0  0  0  0  0  0  0  0  0
    0.7879   -1.0776    0.0000 S   0  0  0  0  0  0  0  0  0  0  0  0
   10.1041   -2.5260    0.0000 C   0  0  0  0  0  0  0  0  0  0  0  0
    3.7891   -1.2282    0.0000 C   0  0  0  0  0  0  0  0  0  0  0  0
   10.1041   -0.8806    0.0000 S   0  0  0  0  0  0  0  0  0  0  0  0
   10.6835   -1.7033    0.0000 C   0  0  0  0  0  0  0  0  0  0  0  0
    6.6164   -1.2166    0.0000 N   0  0  0  0  0  0  0  0  0  0  0  0
    4.4958   -0.8227    0.0000 N   0  0  0  0  0  0  0  0  0  0  0  0
    5.9095   -0.8227    0.0000 C   0  0  0  0  0  0  0  0  0  0  0  0
    1.8076   -0.0348    0.0000 C   0  0  0  0  0  0  0  0  0  0  0  0
    5.2143   -1.2282    0.0000 C   0  0  0  0  0  0  0  0  0  0  0  0
    2.6303   -0.0348    0.0000 C   0  0  0  0  0  0  0  0  0  0  0  0
   10.4053   -3.5110    0.0000 C   0  0  0  0  0  0  0  0  0  0  0  0
    2.2248   -2.1204    0.0000 O   0  0  0  0  0  0  0  0  0  0  0  0
    7.3695   -2.9316    0.0000 O   0  0  0  0  0  0  0  0  0  0  0  0
    0.5215   -0.3013    0.0000 O   0  0  0  0  0  0  0  0  0  0  0  0
    1.0428   -1.8424    0.0000 O   0  0  0  0  0  0  0  0  0  0  0  0
    3.7891   -2.0510    0.0000 O   0  0  0  0  0  0  0  0  0  0  0  0
    5.9095    0.0000    0.0000 O   0  0  0  0  0  0  0  0  0  0  0  0
   11.4135   -3.7195    0.0000 O   0  0  0  0  0  0  0  0  0  0  0  0
    5.2143   -2.0510    0.0000 C   0  0  0  0  0  0  0  0  0  0  0  0
    0.0000   -1.3325    0.0000 C   0  0  0  0  0  0  0  0  0  0  0  0
    9.7101   -4.2641    0.0000 O   0  0  0  0  0  0  0  0  0  0  0  0
   11.5873   -1.1935    0.0000 C   0  0  0  0  0  0  0  0  0  0  0  0
   11.5873   -2.2132    0.0000 C   0  0  0  0  0  0  0  0  0  0  0  0
    5.9095   -2.4565    0.0000 C   0  0  0  0  0  0  0  0  0  0  0  0
    4.4958   -2.4565    0.0000 C   0  0  0  0  0  0  0  0  0  0  0  0
    4.4958   -3.2792    0.0000 C   0  0  0  0  0  0  0  0  0  0  0  0
    5.9095   -3.2792    0.0000 C   0  0  0  0  0  0  0  0  0  0  0  0
    5.2143   -3.6847    0.0000 C   0  0  0  0  0  0  0  0  0  0  0  0
  1  5  1  0
  1  6  1  0
  1  9  1  0
  2  4  1  0
  2  8  1  0
  2 16  1  0
  3 10  1  0
  3  4  1  0
  3 18  1  0
  4 20  2  0
  5 11  1  1
  5  7  1  0
  6  7  1  0
  6 21  2  0
  7 13  1  1
  8 22  2  0
  8 23  2  0
  8 28  1  0
  9 12  1  0
  9 19  1  6
 10 14  1  0
 10 24  2  0
 11 12  1  0
 12 30  1  0
 12 31  1  0
 13 15  1  0
 17 14  1  1
 15 17  1  0
 15 25  2  0
 16 18  1  0
 17 27  1  0
 19 26  2  0
 19 29  1  0
 27 32  2  0
 27 33  1  0
 32 35  1  0
 33 34  2  0
 34 36  1  0
 35 36  2  0
M  END
>  <Formula>  (198) 
C21H25N5O8S2

>  <FW>  (198) 
539.5819

>  <DSSTox_CID>  (198) 
3316

>  <NR-AR>  (198) 
1

>  <NR-AR-LBD>  (198) 
0

>  <NR-ER>  (198) 
1

>  <NR-ER-LBD>  (198) 
0

>  <NR-PPAR-gamma>  (198) 
0

>  <NR-AhR>  (198) 
0

>  <SR-ATAD5>  (198) 
0

>  <SR-MMP>  (198) 
0

>  <SR-p53>  (198) 
0

$$$$
NCGC00164560-01
     RDKit          2D

 21 24  0  0  1  0  0  0  0  0999 V2000
    1.5925   -4.8339    0.0000 C   0  0  0  0  0  0  0  0  0  0  0  0
    1.8514   -5.6273    0.0000 C   0  0  0  0  0  0  0  0  0  0  0  0
    2.6730   -5.6273    0.0000 C   0  0  0  0  0  0  0  0  0  0  0  0
    2.9318   -4.8395    0.0000 C   0  0  0  0  0  0  0  0  0  0  0  0
    2.2565   -4.3443    0.0000 C   0  0  0  0  0  0  0  0  0  0  0  0
    0.8159   -4.5806    0.0000 C   0  0  0  0  0  0  0  0  0  0  0  0
    2.1384   -3.1794    0.0000 C   0  0  0  0  0  0  0  0  0  0  0  0
    2.1384   -2.3635    0.0000 C   0  0  0  0  0  0  0  0  0  0  0  0
    2.9318   -2.1102    0.0000 N   0  0  0  0  0  0  0  0  0  0  0  0
    2.9318   -3.4383    0.0000 N   0  0  0  0  0  0  0  0  0  0  0  0
    3.4214   -2.7743    0.0000 C   0  0  0  0  0  0  0  0  0  0  0  0
    1.4237   -3.6015    0.0000 N   0  0  0  0  0  0  0  0  0  0  0  0
    0.7146   -2.3635    0.0000 N   0  0  0  0  0  0  0  0  0  0  0  0
    0.7146   -3.1794    0.0000 C   0  0  0  0  0  0  0  0  0  0  0  0
    1.4237   -1.9471    0.0000 C   0  0  0  0  0  0  0  0  0  0  0  0
    0.0000   -3.6015    0.0000 N   0  0  0  0  0  0  0  0  0  0  0  0
    1.4237   -1.1255    0.0000 N   0  0  0  0  0  0  0  0  0  0  0  0
    2.1384   -0.7034    0.0000 C   0  0  0  0  0  0  0  0  0  0  0  0
    2.9712   -0.7034    0.0000 C   0  0  0  0  0  0  0  0  0  0  0  0
    2.5548    0.0000    0.0000 C   0  0  0  0  0  0  0  0  0  0  0  0
    0.1970   -5.1377    0.0000 O   0  0  0  0  0  0  0  0  0  0  0  0
  1  2  1  0
  1  5  1  0
  1  6  1  1
  2  3  2  0
  3  4  1  0
  4  5  1  0
  4 10  1  6
  6 21  1  0
  7  8  2  0
  7 10  1  0
  7 12  1  0
  8  9  1  0
  8 15  1  0
  9 11  2  0
 10 11  1  0
 12 14  2  0
 13 14  1  0
 13 15  2  0
 14 16  1  0
 15 17  1  0
 17 18  1  0
 18 19  1  0
 18 20  1  0
 19 20  1  0
M  END
>  <Formula>  (199) 
C14H18N6O

>  <FW>  (199) 
286.3323

>  <DSSTox_CID>  (199) 
26444

>  <NR-AR>  (199) 
0

>  <NR-AR-LBD>  (199) 
0

>  <NR-ER>  (199) 
1

>  <NR-ER-LBD>  (199) 
0

>  <NR-PPAR-gamma>  (199) 
0

>  <NR-AhR>  (199) 
1

>  <SR-ATAD5>  (199) 
1

>  <SR-MMP>  (199) 
0

>  <SR-p53>  (199) 
0

$$$$
NCGC00166283-01
     RDKit          2D

 44 46  0  0  0  0  0  0  0  0999 V2000
    2.9440   -4.5886    0.0000 C   0  0  0  0  0  0  0  0  0  0  0  0
    5.1759   -2.3346    0.0000 C   0  0  0  0  0  0  0  0  0  0  0  0
    4.3903   -4.5886    0.0000 C   0  0  0  0  0  0  0  0  0  0  0  0
    2.9440   -1.2334    0.0000 C   0  0  0  0  0  0  0  0  0  0  0  0
    5.1759   -3.4946    0.0000 C   0  0  0  0  0  0  0  0  0  0  0  0
    2.1584   -2.3346    0.0000 C   0  0  0  0  0  0  0  0  0  0  0  0
    4.3903   -1.2334    0.0000 C   0  0  0  0  0  0  0  0  0  0  0  0
    2.1584   -3.4946    0.0000 C   0  0  0  0  0  0  0  0  0  0  0  0
    4.3903   -2.0703    0.0000 N   0  0  0  0  0  0  0  0  0  0  0  0
    2.9440   -3.7222    0.0000 N   0  0  0  0  0  0  0  0  0  0  0  0
    2.9440   -2.0703    0.0000 N   0  0  0  0  0  0  0  0  0  0  0  0
    4.3903   -3.7222    0.0000 N   0  0  0  0  0  0  0  0  0  0  0  0
    2.1584   -4.8161    0.0000 C   0  0  0  0  0  0  0  0  0  0  0  0
    5.1759   -4.8161    0.0000 C   0  0  0  0  0  0  0  0  0  0  0  0
    5.6531   -1.6739    0.0000 C   0  0  0  0  0  0  0  0  0  0  0  0
    2.1584   -0.9617    0.0000 C   0  0  0  0  0  0  0  0  0  0  0  0
    5.4035   -2.9367    0.0000 C   0  0  0  0  0  0  0  0  0  0  0  0
    3.6635   -4.9923    0.0000 C   0  0  0  0  0  0  0  0  0  0  0  0
    1.8501   -2.8926    0.0000 C   0  0  0  0  0  0  0  0  0  0  0  0
    3.6708   -0.8076    0.0000 C   0  0  0  0  0  0  0  0  0  0  0  0
    5.6531   -4.1480    0.0000 C   0  0  0  0  0  0  0  0  0  0  0  0
    1.6739   -1.6739    0.0000 C   0  0  0  0  0  0  0  0  0  0  0  0
    1.6739   -4.1480    0.0000 C   0  0  0  0  0  0  0  0  0  0  0  0
    5.1759   -0.9617    0.0000 C   0  0  0  0  0  0  0  0  0  0  0  0
    1.8575   -5.6237    0.0000 C   0  0  0  0  0  0  0  0  0  0  0  0
    5.4548   -5.6237    0.0000 C   0  0  0  0  0  0  0  0  0  0  0  0
    1.9235   -0.1909    0.0000 C   0  0  0  0  0  0  0  0  0  0  0  0
    6.4680   -1.6739    0.0000 C   0  0  0  0  0  0  0  0  0  0  0  0
    0.8369   -6.5561    0.0000 C   0  0  0  0  0  0  0  0  0  0  0  0
    6.5487   -6.5634    0.0000 C   0  0  0  0  0  0  0  0  0  0  0  0
    0.0000   -6.7029    0.0000 O   0  0  0  0  0  0  0  0  0  0  0  0
    7.3417   -6.7323    0.0000 O   0  0  0  0  0  0  0  0  0  0  0  0
    1.0645   -5.7485    0.0000 C   0  0  0  0  0  0  0  0  0  0  0  0
    6.2771   -5.7999    0.0000 C   0  0  0  0  0  0  0  0  0  0  0  0
    1.1306    0.0000    0.0000 C   0  0  0  0  0  0  0  0  0  0  0  0
    6.8865   -0.9911    0.0000 C   0  0  0  0  0  0  0  0  0  0  0  0
    1.3142   -7.2022    0.0000 O   0  0  0  0  0  0  0  0  0  0  0  0
    5.9908   -7.2022    0.0000 O   0  0  0  0  0  0  0  0  0  0  0  0
    0.8369   -1.6739    0.0000 C   0  0  0  0  0  0  0  0  0  0  0  0
    6.4973   -4.1480    0.0000 C   0  0  0  0  0  0  0  0  0  0  0  0
    5.4548   -0.1689    0.0000 C   0  0  0  0  0  0  0  0  0  0  0  0
    0.8369   -4.1480    0.0000 C   0  0  0  0  0  0  0  0  0  0  0  0
    2.3567   -7.1655    0.0000 Na  0  0  0  0  0 15  0  0  0  0  0  0
    5.1832   -7.1361    0.0000 Na  0  0  0  0  0 15  0  0  0  0  0  0
  1 10  2  0
  1 13  1  0
  1 18  1  0
  2 17  1  0
  2  9  2  0
  2 15  1  0
  3 18  2  0
  3 12  1  0
  3 14  1  0
  4 11  1  0
  4 20  1  0
  4 16  2  0
  5 12  1  0
  5 17  2  0
  5 21  1  0
  6 19  1  0
  6 11  1  0
  6 22  2  0
  7  9  1  0
  7 20  2  0
  7 24  1  0
  8 10  1  0
  8 19  2  0
  8 23  1  0
 13 23  2  0
 13 25  1  0
 14 21  2  0
 14 26  1  0
 15 24  2  0
 15 28  1  0
 16 22  1  0
 16 27  1  0
 21 40  1  0
 22 39  1  0
 23 42  1  0
 24 41  1  0
 25 33  1  0
 26 34  1  0
 27 35  2  0
 28 36  2  0
 29 33  1  0
 29 31  2  0
 29 37  1  0
 30 34  1  0
 30 32  2  0
 30 38  1  0
M  CHG  4  37  -1  38  -1  43   1  44   1
M  END
>  <Formula>  (200) 
C34H32N4Na2O4

>  <FW>  (200) 
606.6218 (560.6434+22.9892+22.9892)

>  <DSSTox_CID>  (200) 
26589

>  <NR-Aromatase>  (200) 
0

>  <NR-AR>  (200) 
0

>  <NR-AR-LBD>  (200) 
0

>  <NR-ER>  (200) 
1

>  <NR-ER-LBD>  (200) 
1

>  <NR-PPAR-gamma>  (200) 
0

>  <NR-AhR>  (200) 
0

>  <SR-ATAD5>  (200) 
0

>  <SR-MMP>  (200) 
0

>  <SR-p53>  (200) 
0

$$$$
NCGC00255032-01
     RDKit          2D

 27 29  0  0  0  0  0  0  0  0999 V2000
    4.6294   -1.2243    0.0000 C   0  0  0  0  0  0  0  0  0  0  0  0
    4.7660   -2.0441    0.0000 C   0  0  0  0  0  0  0  0  0  0  0  0
    3.8517   -0.9458    0.0000 C   0  0  0  0  0  0  0  0  0  0  0  0
    4.1407   -2.5695    0.0000 C   0  0  0  0  0  0  0  0  0  0  0  0
    3.2159   -1.4871    0.0000 C   0  0  0  0  0  0  0  0  0  0  0  0
    3.3630   -2.2910    0.0000 C   0  0  0  0  0  0  0  0  0  0  0  0
    1.2348   -1.6237    0.0000 C   0  0  0  0  0  0  0  0  0  0  0  0
    1.6500   -0.9091    0.0000 C   0  0  0  0  0  0  0  0  0  0  0  0
    0.4098   -1.6237    0.0000 C   0  0  0  0  0  0  0  0  0  0  0  0
    1.2348   -0.1997    0.0000 C   0  0  0  0  0  0  0  0  0  0  0  0
    0.0000   -0.9091    0.0000 C   0  0  0  0  0  0  0  0  0  0  0  0
    0.4098   -0.1997    0.0000 C   0  0  0  0  0  0  0  0  0  0  0  0
    2.0021   -1.5816    0.0000 C   0  0  0  0  0  0  0  0  0  0  0  0
    2.0021   -0.2417    0.0000 O   0  0  0  0  0  0  0  0  0  0  0  0
    2.7850   -0.4992    0.0000 C   0  0  0  0  0  0  0  0  0  0  0  0
    2.7850   -1.3242    0.0000 C   0  0  0  0  0  0  0  0  0  0  0  0
    3.4419    0.0000    0.0000 O   0  0  0  0  0  0  0  0  0  0  0  0
    1.8392   -2.2806    0.0000 O   0  0  0  0  0  0  0  0  0  0  0  0
    2.3909   -2.9059    0.0000 C   0  0  0  0  0  0  0  0  0  0  0  0
    3.1948   -2.7482    0.0000 O   0  0  0  0  0  0  0  0  0  0  0  0
    2.1176   -3.6835    0.0000 C   0  0  0  0  0  0  0  0  0  0  0  0
    5.2547   -0.6989    0.0000 Cl  0  0  0  0  0  0  0  0  0  0  0  0
    4.2878   -3.3840    0.0000 Cl  0  0  0  0  0  0  0  0  0  0  0  0
    1.3452   -3.4261    0.0000 C   0  0  0  0  0  0  0  0  0  0  0  0
    1.8601   -4.4717    0.0000 C   0  0  0  0  0  0  0  0  0  0  0  0
    2.9059   -3.9515    0.0000 C   0  0  0  0  0  0  0  0  0  0  0  0
    1.0457   -4.6294    0.0000 C   0  0  0  0  0  0  0  0  0  0  0  0
  1  2  2  0
  1  3  1  0
  1 22  1  0
  2  4  1  0
  3  5  2  0
  4  6  2  0
  4 23  1  0
  5  6  1  0
  5 16  1  0
  7  8  1  0
  7  9  1  0
  8 10  1  0
  8 13  1  0
  8 14  1  0
  9 11  1  0
 10 12  1  0
 11 12  1  0
 13 16  2  0
 13 18  1  0
 14 15  1  0
 15 16  1  0
 15 17  2  0
 18 19  1  0
 19 20  2  0
 19 21  1  0
 21 24  1  0
 21 25  1  0
 21 26  1  0
 25 27  1  0
M  END
>  <Formula>  (201) 
C21H24Cl2O4

>  <FW>  (201) 
411.3189

>  <DSSTox_CID>  (201) 
14928

>  <NR-AR>  (201) 
0

>  <NR-ER>  (201) 
1

>  <NR-ER-LBD>  (201) 
0

>  <NR-PPAR-gamma>  (201) 
1

>  <SR-ARE>  (201) 
1

>  <SR-ATAD5>  (201) 
0

>  <SR-HSE>  (201) 
0

>  <SR-MMP>  (201) 
1

>  <SR-p53>  (201) 
1

$$$$
NCGC00167506-01
     RDKit          2D

 56 59  0  0  1  0  0  0  0  0999 V2000
    7.1493   -1.1849    0.0000 C   0  0  0  0  0  0  0  0  0  0  0  0
    7.8662   -1.5931    0.0000 C   0  0  0  0  0  0  0  0  0  0  0  0
    7.8662   -2.4395    0.0000 C   0  0  0  0  0  0  0  0  0  0  0  0
    8.5931   -2.8577    0.0000 C   0  0  0  0  0  0  0  0  0  0  0  0
    8.5931   -3.6941    0.0000 C   0  0  0  0  0  0  0  0  0  0  0  0
    7.8662   -5.3868    0.0000 C   0  0  0  0  0  0  0  0  0  0  0  0
    6.4224   -5.3868    0.0000 C   0  0  0  0  0  0  0  0  0  0  0  0
    4.9686   -4.9587    0.0000 C   0  0  0  0  0  0  0  0  0  0  0  0
    5.6856   -5.3669    0.0000 C   0  0  0  0  0  0  0  0  0  0  0  0
    9.3299   -4.1123    0.0000 C   0  0  0  0  0  0  0  0  0  0  0  0
    8.5931   -5.3669    0.0000 C   0  0  0  0  0  0  0  0  0  0  0  0
    9.3299   -4.9587    0.0000 C   0  0  0  0  0  0  0  0  0  0  0  0
    4.9686   -2.4395    0.0000 C   0  0  0  0  0  0  0  0  0  0  0  0
    4.2318   -3.6941    0.0000 O   0  0  0  0  0  0  0  0  0  0  0  0
    4.2318   -2.8577    0.0000 C   0  0  0  0  0  0  0  0  0  0  0  0
    4.9686   -1.5931    0.0000 C   0  0  0  0  0  0  0  0  0  0  0  0
    5.6856   -1.1849    0.0000 C   0  0  0  0  0  0  0  0  0  0  0  0
    3.5149   -4.1123    0.0000 C   0  0  0  0  0  0  0  0  0  0  0  0
    3.5149   -4.9587    0.0000 C   0  0  0  0  0  0  0  0  0  0  0  0
    4.2318   -5.3669    0.0000 N   0  0  0  0  0  0  0  0  0  0  0  0
    7.1493   -4.9587    0.0000 O   0  0  0  0  0  0  0  0  0  0  0  0
    7.8662   -6.2232    0.0000 C   0  0  0  0  0  0  0  0  0  0  0  0
    7.1493   -6.6415    0.0000 C   0  0  0  0  0  0  0  0  0  0  0  0
    6.4224   -6.2232    0.0000 C   0  0  0  0  0  0  0  0  0  0  0  0
    2.7781   -5.3669    0.0000 C   0  0  0  0  0  0  0  0  0  0  0  0
    2.7781   -6.2232    0.0000 C   0  0  0  0  0  0  0  0  0  0  0  0
    4.2318   -6.2232    0.0000 C   0  0  0  0  0  0  0  0  0  0  0  0
    3.5149   -6.6315    0.0000 C   0  0  0  0  0  0  0  0  0  0  0  0
    3.5348   -2.4495    0.0000 C   0  0  0  0  0  0  0  0  0  0  0  0
    2.8179   -2.8577    0.0000 C   0  0  0  0  0  0  0  0  0  0  0  0
    2.1209   -2.4495    0.0000 C   0  0  0  0  0  0  0  0  0  0  0  0
    1.4239   -1.2447    0.0000 C   0  0  0  0  0  0  0  0  0  0  0  0
    2.1209   -1.6330    0.0000 C   0  0  0  0  0  0  0  0  0  0  0  0
    0.7070   -1.6330    0.0000 C   0  0  0  0  0  0  0  0  0  0  0  0
    0.7070   -2.4495    0.0000 C   0  0  0  0  0  0  0  0  0  0  0  0
    1.4239   -2.8577    0.0000 C   0  0  0  0  0  0  0  0  0  0  0  0
    0.0000   -1.2447    0.0000 Cl  0  0  0  0  0  0  0  0  0  0  0  0
    1.4239   -0.4182    0.0000 O   0  0  0  0  0  0  0  0  0  0  0  0
    2.1209    0.0000    0.0000 C   0  0  0  0  0  0  0  0  0  0  0  0
    3.5348   -1.7226    0.0000 C   0  0  0  0  0  0  0  0  0  0  0  0
    2.8876   -3.7539    0.0000 O   0  0  0  0  0  0  0  0  0  0  0  0
    4.9686   -4.2318    0.0000 O   0  0  0  0  0  0  0  0  0  0  0  0
    5.5064   -6.0739    0.0000 O   0  0  0  0  0  0  0  0  0  0  0  0
    5.7951   -6.5917    0.0000 C   0  0  0  0  0  0  0  0  0  0  0  0
    8.4935   -6.5917    0.0000 O   0  0  0  0  0  0  0  0  0  0  0  0
    8.4935   -7.2986    0.0000 C   0  0  0  0  0  0  0  0  0  0  0  0
    6.4125   -4.6600    0.0000 O   0  0  0  0  0  0  0  0  0  0  0  0
    8.7823   -6.0739    0.0000 O   0  0  0  0  0  0  0  0  0  0  0  0
    9.4892   -6.2531    0.0000 C   0  0  0  0  0  0  0  0  0  0  0  0
    9.9572   -3.7539    0.0000 C   0  0  0  0  0  0  0  0  0  0  0  0
    9.2204   -2.4893    0.0000 C   0  0  0  0  0  0  0  0  0  0  0  0
    8.4935   -1.2447    0.0000 C   0  0  0  0  0  0  0  0  0  0  0  0
    9.1208   -1.5931    0.0000 C   0  0  0  0  0  0  0  0  0  0  0  0
    7.3285   -0.4779    0.0000 O   0  0  0  0  0  0  0  0  0  0  0  0
    4.3314   -1.2447    0.0000 O   0  0  0  0  0  0  0  0  0  0  0  0
    5.5860   -2.7880    0.0000 C   0  0  0  0  0  0  0  0  0  0  0  0
  1 17  1  0
  1  2  1  0
  1 54  2  0
  2  3  1  0
  2 52  1  6
  3  4  2  0
  4  5  1  0
  4 51  1  0
  5 10  1  0
  6 21  1  6
  6 11  1  0
  6 22  1  0
  7  9  1  0
  7 21  1  0
  7 24  1  0
  7 47  1  1
  8  9  1  0
  8 20  1  0
  8 42  2  0
  9 43  2  0
 10 12  1  0
 10 50  1  6
 11 12  1  0
 11 48  1  6
 13 15  1  0
 13 16  1  0
 13 56  1  1
 15 14  1  6
 14 18  1  0
 15 29  1  0
 16 17  1  0
 16 55  1  1
 18 19  1  0
 18 41  2  0
 19 25  1  1
 19 20  1  0
 20 27  1  0
 22 23  1  0
 22 45  1  1
 23 24  1  0
 24 44  1  1
 25 26  1  0
 26 28  1  0
 27 28  1  0
 29 30  2  0
 29 40  1  0
 31 30  1  0
 31 33  1  6
 31 36  1  0
 32 33  1  0
 32 34  1  0
 32 38  1  6
 34 35  1  0
 34 37  1  1
 35 36  1  0
 38 39  1  0
 45 46  1  0
 48 49  1  0
 52 53  1  0
M  END
>  <Formula>  (202) 
C43H68ClNO11

>  <FW>  (202) 
810.4531

>  <DSSTox_CID>  (202) 
26674

>  <NR-Aromatase>  (202) 
0

>  <NR-AR>  (202) 
0

>  <NR-AR-LBD>  (202) 
0

>  <NR-ER>  (202) 
1

>  <NR-ER-LBD>  (202) 
1

>  <NR-PPAR-gamma>  (202) 
0

>  <NR-AhR>  (202) 
0

>  <SR-ATAD5>  (202) 
0

>  <SR-MMP>  (202) 
0

>  <SR-p53>  (202) 
0

$$$$
NCGC00094720-01
     RDKit          2D

 28 28  0  0  1  0  0  0  0  0999 V2000
    5.9942   -4.6487    0.0000 Na  0  0  0  0  0 15  0  0  0  0  0  0
    2.6273   -4.3107    0.0000 O   0  0  0  0  0  0  0  0  0  0  0  0
    4.4064   -2.4870    0.0000 N   0  0  0  0  0  0  0  0  0  0  0  0
    4.4064   -1.6580    0.0000 C   0  0  0  0  0  0  0  0  0  0  0  0
    3.5774   -2.4870    0.0000 C   0  0  0  0  0  0  0  0  0  0  0  0
    3.5774   -1.6580    0.0000 C   0  0  0  0  0  0  0  0  0  0  0  0
    5.1780   -2.7421    0.0000 C   0  0  0  0  0  0  0  0  0  0  0  0
    5.1780   -1.4093    0.0000 S   0  0  0  0  0  0  0  0  0  0  0  0
    5.6754   -2.0725    0.0000 C   0  0  0  0  0  0  0  0  0  0  0  0
    2.1362   -1.6516    0.0000 C   0  0  0  0  0  0  0  0  0  0  0  0
    2.8568   -1.2307    0.0000 N   0  0  0  0  0  0  0  0  0  0  0  0
    1.4284   -1.2307    0.0000 C   0  0  0  0  0  0  0  0  0  0  0  0
    5.4458   -3.5200    0.0000 C   0  0  0  0  0  0  0  0  0  0  0  0
    2.9907   -3.0672    0.0000 O   0  0  0  0  0  0  0  0  0  0  0  0
    2.1362   -2.4806    0.0000 O   0  0  0  0  0  0  0  0  0  0  0  0
    1.4284   -0.4017    0.0000 C   0  0  0  0  0  0  0  0  0  0  0  0
    0.7078   -1.6516    0.0000 C   0  0  0  0  0  0  0  0  0  0  0  0
    6.2366   -3.6985    0.0000 O   0  0  0  0  0  0  0  0  0  0  0  0
    6.3768   -2.4870    0.0000 C   0  0  0  0  0  0  0  0  0  0  0  0
    6.3768   -1.6580    0.0000 C   0  0  0  0  0  0  0  0  0  0  0  0
    2.1362    0.0000    0.0000 O   0  0  0  0  0  0  0  0  0  0  0  0
    0.7078   -2.4806    0.0000 O   0  0  0  0  0  0  0  0  0  0  0  0
    0.0000   -0.4017    0.0000 C   0  0  0  0  0  0  0  0  0  0  0  0
    0.7078    0.0000    0.0000 C   0  0  0  0  0  0  0  0  0  0  0  0
    0.0000   -1.2307    0.0000 C   0  0  0  0  0  0  0  0  0  0  0  0
    2.8504   -0.4209    0.0000 C   0  0  0  0  0  0  0  0  0  0  0  0
    1.4220   -2.8823    0.0000 C   0  0  0  0  0  0  0  0  0  0  0  0
    4.8783   -4.1386    0.0000 O   0  0  0  0  0  0  0  0  0  0  0  0
  3  4  1  0
  3  5  1  0
  3  7  1  0
  4  8  1  1
  4  6  1  0
  5  6  1  0
  5 14  2  0
  6 11  1  1
  7  9  1  0
  7 13  1  6
  8  9  1  0
  9 19  1  0
  9 20  1  0
 10 11  1  0
 10 12  1  0
 10 15  2  0
 12 16  2  0
 12 17  1  0
 13 18  2  0
 13 28  1  0
 16 21  1  0
 16 24  1  0
 17 22  1  0
 17 25  2  0
 21 26  1  0
 22 27  1  0
 23 25  1  0
 23 24  2  0
M  CHG  2   1   1  28  -1
M  END
>  <Formula>  (203) 
C17H21N2NaO7S

>  <FW>  (203) 
420.4126 (22.9892+18.0153+379.4081)

>  <DSSTox_CID>  (203) 
25835

>  <NR-Aromatase>  (203) 
0

>  <NR-AR>  (203) 
0

>  <NR-AR-LBD>  (203) 
0

>  <NR-ER>  (203) 
1

>  <NR-ER-LBD>  (203) 
0

>  <NR-PPAR-gamma>  (203) 
0

>  <NR-AhR>  (203) 
0

>  <SR-ATAD5>  (203) 
0

>  <SR-MMP>  (203) 
0

>  <SR-p53>  (203) 
0

$$$$
NCGC00068236-02
     RDKit          2D

 27 30  0  0  0  0  0  0  0  0999 V2000
    2.8546   -3.7111    0.0000 C   0  0  0  0  0  0  0  0  0  0  0  0
    3.5683   -3.2972    0.0000 O   0  0  0  0  0  0  0  0  0  0  0  0
    3.5683   -2.4765    0.0000 C   0  0  0  0  0  0  0  0  0  0  0  0
    2.8546   -2.0625    0.0000 C   0  0  0  0  0  0  0  0  0  0  0  0
    2.1410   -2.4765    0.0000 N   0  0  0  0  0  0  0  0  0  0  0  0
    2.1410   -3.2972    0.0000 C   0  0  0  0  0  0  0  0  0  0  0  0
    1.4273   -3.7111    0.0000 C   0  0  0  0  0  0  0  0  0  0  0  0
    0.7137   -3.2972    0.0000 N   0  0  0  0  0  0  0  0  0  0  0  0
    0.7137   -2.4765    0.0000 C   0  0  0  0  0  0  0  0  0  0  0  0
    0.0000   -2.0625    0.0000 C   0  0  0  0  0  0  0  0  0  0  0  0
    1.4273   -2.0625    0.0000 C   0  0  0  0  0  0  0  0  0  0  0  0
    2.8546   -1.2347    0.0000 C   0  0  0  0  0  0  0  0  0  0  0  0
    3.5683   -0.8278    0.0000 C   0  0  0  0  0  0  0  0  0  0  0  0
    4.2820   -1.2347    0.0000 C   0  0  0  0  0  0  0  0  0  0  0  0
    4.2820   -2.0625    0.0000 C   0  0  0  0  0  0  0  0  0  0  0  0
    4.9957   -2.4765    0.0000 N   0  0  0  0  0  0  0  0  0  0  0  0
    5.7094   -2.0625    0.0000 C   0  0  0  0  0  0  0  0  0  0  0  0
    5.7094   -1.2347    0.0000 C   0  0  0  0  0  0  0  0  0  0  0  0
    6.4230   -0.8278    0.0000 C   0  0  0  0  0  0  0  0  0  0  0  0
    7.1367   -1.2347    0.0000 O   0  0  0  0  0  0  0  0  0  0  0  0
    6.4230    0.0000    0.0000 O   0  0  0  0  0  0  0  0  0  0  0  0
    4.9957   -0.8278    0.0000 C   0  0  0  0  0  0  0  0  0  0  0  0
    4.9957    0.0000    0.0000 O   0  0  0  0  0  0  0  0  0  0  0  0
    4.9957   -3.2972    0.0000 C   0  0  0  0  0  0  0  0  0  0  0  0
    5.4096   -4.0108    0.0000 C   0  0  0  0  0  0  0  0  0  0  0  0
    4.5818   -4.0108    0.0000 C   0  0  0  0  0  0  0  0  0  0  0  0
    2.1410   -0.8278    0.0000 F   0  0  0  0  0  0  0  0  0  0  0  0
  1  2  1  0
  2  3  1  0
  3  4  2  0
  3 15  1  0
  4  5  1  0
  4 12  1  0
  5  6  1  0
  5 11  1  0
  6  7  1  0
  7  8  1  0
  8  9  1  0
  9 10  1  0
  9 11  1  0
 12 13  2  0
 12 27  1  0
 13 14  1  0
 14 15  2  0
 14 22  1  0
 15 16  1  0
 16 17  1  0
 16 24  1  0
 17 18  2  0
 18 19  1  0
 18 22  1  0
 19 20  1  0
 19 21  2  0
 22 23  2  0
 24 25  1  0
 24 26  1  0
 25 26  1  0
M  END
>  <Formula>  (204) 
C19H22FN3O4

>  <FW>  (204) 
375.3941

>  <DSSTox_CID>  (204) 
25704

>  <NR-Aromatase>  (204) 
0

>  <NR-AR>  (204) 
0

>  <NR-AR-LBD>  (204) 
0

>  <NR-ER>  (204) 
1

>  <NR-ER-LBD>  (204) 
0

>  <NR-PPAR-gamma>  (204) 
0

>  <NR-AhR>  (204) 
0

>  <SR-ATAD5>  (204) 
0

>  <SR-MMP>  (204) 
0

>  <SR-p53>  (204) 
0

$$$$
NCGC00018248-04
     RDKit          2D

 23 25  0  0  0  0  0  0  0  0999 V2000
    1.4096   -1.4662    0.0000 C   0  0  0  0  0  0  0  0  0  0  0  0
    1.4096   -2.3021    0.0000 C   0  0  0  0  0  0  0  0  0  0  0  0
    2.1108   -1.0554    0.0000 C   0  0  0  0  0  0  0  0  0  0  0  0
    0.6729   -1.0554    0.0000 C   0  0  0  0  0  0  0  0  0  0  0  0
    2.1108   -2.7412    0.0000 S   0  0  0  0  0  0  0  0  0  0  0  0
    0.6729   -2.7129    0.0000 C   0  0  0  0  0  0  0  0  0  0  0  0
    2.8262   -1.4662    0.0000 C   0  0  0  0  0  0  0  0  0  0  0  0
    2.1108   -0.2125    0.0000 O   0  0  0  0  0  0  0  0  0  0  0  0
    0.0000   -1.4662    0.0000 C   0  0  0  0  0  0  0  0  0  0  0  0
    2.8262   -2.3304    0.0000 N   0  0  0  0  0  0  0  0  0  0  0  0
    2.4933   -3.4425    0.0000 O   0  0  0  0  0  0  0  0  0  0  0  0
    1.6858   -3.4425    0.0000 O   0  0  0  0  0  0  0  0  0  0  0  0
    0.0000   -2.3021    0.0000 C   0  0  0  0  0  0  0  0  0  0  0  0
    3.5558   -1.0554    0.0000 C   0  0  0  0  0  0  0  0  0  0  0  0
    3.5558   -2.7129    0.0000 C   0  0  0  0  0  0  0  0  0  0  0  0
    4.2853   -1.4662    0.0000 N   0  0  0  0  0  0  0  0  0  0  0  0
    3.5558   -0.2125    0.0000 O   0  0  0  0  0  0  0  0  0  0  0  0
    4.9937   -1.0554    0.0000 C   0  0  0  0  0  0  0  0  0  0  0  0
    5.0007   -0.2267    0.0000 N   0  0  0  0  0  0  0  0  0  0  0  0
    5.7515   -1.3033    0.0000 S   0  0  0  0  0  0  0  0  0  0  0  0
    5.7728    0.0000    0.0000 C   0  0  0  0  0  0  0  0  0  0  0  0
    6.2686   -0.6588    0.0000 C   0  0  0  0  0  0  0  0  0  0  0  0
    7.0832   -0.6375    0.0000 C   0  0  0  0  0  0  0  0  0  0  0  0
  1  2  2  0
  1  3  1  0
  1  4  1  0
  2  5  1  0
  2  6  1  0
  3  7  2  0
  3  8  1  0
  4  9  2  0
  5 10  1  0
  5 11  2  0
  5 12  2  0
  6 13  2  0
  7 14  1  0
  7 10  1  0
  9 13  1  0
 10 15  1  0
 14 16  1  0
 14 17  2  0
 16 18  1  0
 18 19  2  0
 18 20  1  0
 19 21  1  0
 20 22  1  0
 21 22  2  0
 22 23  1  0
M  END
>  <Formula>  (205) 
C14H13N3O4S2

>  <FW>  (205) 
351.4007

>  <DSSTox_CID>  (205) 
803

>  <NR-Aromatase>  (205) 
0

>  <NR-AR>  (205) 
1

>  <NR-AR-LBD>  (205) 
0

>  <NR-ER>  (205) 
1

>  <NR-ER-LBD>  (205) 
0

>  <NR-PPAR-gamma>  (205) 
0

>  <NR-AhR>  (205) 
0

>  <SR-ATAD5>  (205) 
0

>  <SR-MMP>  (205) 
0

>  <SR-p53>  (205) 
0

$$$$
NCGC00168265-01
     RDKit          2D

 24 27  0  0  1  0  0  0  0  0999 V2000
    2.1427   -2.5344    0.0000 C   0  0  0  0  0  0  0  0  0  0  0  0
    2.8252   -1.3117    0.0000 C   0  0  0  0  0  0  0  0  0  0  0  0
    2.1427   -1.7213    0.0000 C   0  0  0  0  0  0  0  0  0  0  0  0
    2.1427   -4.1963    0.0000 C   0  0  0  0  0  0  0  0  0  0  0  0
    2.8252   -2.9558    0.0000 C   0  0  0  0  0  0  0  0  0  0  0  0
    1.4067   -2.9558    0.0000 C   0  0  0  0  0  0  0  0  0  0  0  0
    3.5434   -2.5344    0.0000 N   0  0  0  0  0  0  0  0  0  0  0  0
    1.4067   -3.7808    0.0000 C   0  0  0  0  0  0  0  0  0  0  0  0
    3.5256   -0.8725    0.0000 C   0  0  0  0  0  0  0  0  0  0  0  0
    2.8252   -3.7808    0.0000 C   0  0  0  0  0  0  0  0  0  0  0  0
    2.1427   -5.0273    0.0000 C   0  0  0  0  0  0  0  0  0  0  0  0
    0.7063   -5.0273    0.0000 N   0  0  0  0  0  0  0  0  0  0  0  0
    3.5434   -1.7213    0.0000 C   0  0  0  0  0  0  0  0  0  0  0  0
    0.7063   -4.1963    0.0000 C   0  0  0  0  0  0  0  0  0  0  0  0
    4.3328   -1.2227    0.0000 N   0  0  0  0  0  0  0  0  0  0  0  0
    3.5256    0.0000    0.0000 O   0  0  0  0  0  0  0  0  0  0  0  0
    0.7063   -2.5344    0.0000 C   0  0  0  0  0  0  0  0  0  0  0  0
    4.2735   -2.9677    0.0000 C   0  0  0  0  0  0  0  0  0  0  0  0
    0.0000   -2.9558    0.0000 C   0  0  0  0  0  0  0  0  0  0  0  0
    0.0000   -3.7808    0.0000 C   0  0  0  0  0  0  0  0  0  0  0  0
    5.1222   -0.7894    0.0000 C   0  0  0  0  0  0  0  0  0  0  0  0
    4.3328   -2.0655    0.0000 C   0  0  0  0  0  0  0  0  0  0  0  0
    5.1519   -2.5760    0.0000 C   0  0  0  0  0  0  0  0  0  0  0  0
    5.9354   -1.2227    0.0000 C   0  0  0  0  0  0  0  0  0  0  0  0
  1  3  2  0
  1  5  1  0
  1  6  1  0
  2  3  1  0
  2  9  1  1
  2 13  1  0
  4  8  1  0
  4 11  2  0
  4 10  1  0
  5  7  1  0
  5 10  1  6
  6  8  2  0
  6 17  1  0
  7 13  1  0
  7 18  1  0
  8 14  1  0
  9 15  1  0
  9 16  2  0
 11 12  1  0
 12 14  1  0
 14 20  2  0
 15 21  1  0
 15 22  1  0
 17 19  2  0
 19 20  1  0
 21 24  1  0
 22 23  1  0
M  END
>  <Formula>  (206) 
C20H25N3O

>  <FW>  (206) 
323.4320

>  <DSSTox_CID>  (206) 
3231

>  <NR-Aromatase>  (206) 
0

>  <NR-AR>  (206) 
0

>  <NR-AR-LBD>  (206) 
0

>  <NR-ER>  (206) 
1

>  <NR-ER-LBD>  (206) 
1

>  <NR-PPAR-gamma>  (206) 
0

>  <NR-AhR>  (206) 
1

>  <SR-ATAD5>  (206) 
0

>  <SR-MMP>  (206) 
1

>  <SR-p53>  (206) 
0

$$$$
NCGC00095271-01
     RDKit          2D

 30 33  0  0  1  0  0  0  0  0999 V2000
    2.8637   -1.2436    0.0000 C   0  0  0  0  0  0  0  0  0  0  0  0
    2.8637   -2.0686    0.0000 C   0  0  0  0  0  0  0  0  0  0  0  0
    2.1463   -0.8251    0.0000 C   0  0  0  0  0  0  0  0  0  0  0  0
    2.1463   -2.4751    0.0000 C   0  0  0  0  0  0  0  0  0  0  0  0
    1.4349   -1.2436    0.0000 C   0  0  0  0  0  0  0  0  0  0  0  0
    1.4349   -2.0686    0.0000 O   0  0  0  0  0  0  0  0  0  0  0  0
    1.4349   -3.9220    0.0000 C   0  0  0  0  0  0  0  0  0  0  0  0
    1.4349   -4.7470    0.0000 C   0  0  0  0  0  0  0  0  0  0  0  0
    0.7174   -3.5035    0.0000 C   0  0  0  0  0  0  0  0  0  0  0  0
    0.7174   -5.1535    0.0000 C   0  0  0  0  0  0  0  0  0  0  0  0
    0.0000   -3.9220    0.0000 C   0  0  0  0  0  0  0  0  0  0  0  0
    0.0000   -4.7470    0.0000 C   0  0  0  0  0  0  0  0  0  0  0  0
    2.1463   -3.5035    0.0000 C   0  0  0  0  0  0  0  0  0  0  0  0
    2.8637   -3.9220    0.0000 C   0  0  0  0  0  0  0  0  0  0  0  0
    2.1463   -5.1535    0.0000 C   0  0  0  0  0  0  0  0  0  0  0  0
    2.8637   -4.7470    0.0000 C   0  0  0  0  0  0  0  0  0  0  0  0
    3.5812   -3.5035    0.0000 C   0  0  0  0  0  0  0  0  0  0  0  0
    4.2866   -3.9220    0.0000 C   0  0  0  0  0  0  0  0  0  0  0  0
    3.5692   -5.1535    0.0000 C   0  0  0  0  0  0  0  0  0  0  0  0
    4.2866   -4.7470    0.0000 C   0  0  0  0  0  0  0  0  0  0  0  0
    2.1463   -5.9786    0.0000 O   0  0  0  0  0  0  0  0  0  0  0  0
    0.7174   -5.9786    0.0000 O   0  0  0  0  0  0  0  0  0  0  0  0
    3.5692   -5.9786    0.0000 O   0  0  0  0  0  0  0  0  0  0  0  0
    5.0041   -3.5035    0.0000 C   0  0  0  0  0  0  0  0  0  0  0  0
    5.7215   -3.9220    0.0000 O   0  0  0  0  0  0  0  0  0  0  0  0
    0.7174   -0.8251    0.0000 C   0  0  0  0  0  0  0  0  0  0  0  0
    0.0000   -1.2436    0.0000 O   0  0  0  0  0  0  0  0  0  0  0  0
    2.1463    0.0000    0.0000 O   0  0  0  0  0  0  0  0  0  0  0  0
    3.5812   -0.8251    0.0000 O   0  0  0  0  0  0  0  0  0  0  0  0
    3.5812   -2.4751    0.0000 O   0  0  0  0  0  0  0  0  0  0  0  0
  1  2  1  0
  1  3  1  0
  1 29  1  6
  2  4  1  0
  2 30  1  1
  3  5  1  0
  3 28  1  1
  4  6  1  6
  4 13  1  0
  5  6  1  0
  5 26  1  6
  7  9  2  0
 13  7  1  6
  7  8  1  0
  8 10  2  0
  8 15  1  0
  9 11  1  0
 10 12  1  0
 10 22  1  0
 11 12  2  0
 13 14  1  0
 14 17  1  0
 14 16  2  0
 15 16  1  0
 15 21  2  0
 16 19  1  0
 17 18  2  0
 18 20  1  0
 18 24  1  0
 19 20  2  0
 19 23  1  0
 24 25  1  0
 26 27  1  0
M  END
>  <Formula>  (207) 
C21H22O9

>  <FW>  (207) 
418.3940

>  <DSSTox_CID>  (207) 
25967

>  <NR-Aromatase>  (207) 
0

>  <NR-AR>  (207) 
1

>  <NR-AR-LBD>  (207) 
0

>  <NR-ER>  (207) 
1

>  <NR-ER-LBD>  (207) 
0

>  <NR-PPAR-gamma>  (207) 
0

>  <NR-AhR>  (207) 
0

>  <SR-ATAD5>  (207) 
0

>  <SR-MMP>  (207) 
0

>  <SR-p53>  (207) 
0

$$$$
NCGC00167556-01
     RDKit          2D

 32 31  0  0  1  0  0  0  0  0999 V2000
    5.6914   -3.4831    0.0000 N   0  0  0  0  0  0  0  0  0  0  0  0
    4.8664   -3.4831    0.0000 C   0  0  0  0  0  0  0  0  0  0  0  0
    4.8664   -2.6582    0.0000 C   0  0  0  0  0  0  0  0  0  0  0  0
    5.6914   -2.6582    0.0000 C   0  0  0  0  0  0  0  0  0  0  0  0
    6.2664   -4.0748    0.0000 S   0  0  0  0  0  0  0  0  0  0  0  0
    2.0999   -2.4749    0.0000 C   0  0  0  0  0  0  0  0  0  0  0  0
    2.8165   -2.0666    0.0000 C   0  0  0  0  0  0  0  0  0  0  0  0
    1.3166   -2.2249    0.0000 N   0  0  0  0  0  0  0  0  0  0  0  0
    4.2498   -2.0666    0.0000 N   0  0  0  0  0  0  0  0  0  0  0  0
    3.5415   -2.4749    0.0000 C   0  0  0  0  0  0  0  0  0  0  0  0
    0.8249   -2.8915    0.0000 C   0  0  0  0  0  0  0  0  0  0  0  0
    2.0999   -3.3082    0.0000 C   0  0  0  0  0  0  0  0  0  0  0  0
    1.3166   -3.5665    0.0000 S   0  0  0  0  0  0  0  0  0  0  0  0
    6.2664   -2.0666    0.0000 C   0  0  0  0  0  0  0  0  0  0  0  0
    7.5080   -1.3499    0.0000 C   0  0  0  0  0  0  0  0  0  0  0  0
    2.8165   -1.2416    0.0000 N   0  0  0  0  0  0  0  0  0  0  0  0
    4.2748   -4.0748    0.0000 O   0  0  0  0  0  0  0  0  0  0  0  0
    6.8497   -3.4831    0.0000 O   0  0  0  0  0  0  0  0  0  0  0  0
    5.6914   -4.6498    0.0000 O   0  0  0  0  0  0  0  0  0  0  0  0
    4.9748   -0.8249    0.0000 C   0  0  0  0  0  0  0  0  0  0  0  0
    3.5415   -3.3082    0.0000 O   0  0  0  0  0  0  0  0  0  0  0  0
    7.0996   -2.0666    0.0000 O   0  0  0  0  0  0  0  0  0  0  0  0
    4.2498   -1.2416    0.0000 C   0  0  0  0  0  0  0  0  0  0  0  0
    6.8497   -4.6498    0.0000 O   0  0  0  0  0  0  0  0  0  0  0  0
    7.0996   -0.6416    0.0000 O   0  0  0  0  0  0  0  0  0  0  0  0
    3.5415   -0.8249    0.0000 O   0  0  0  0  0  0  0  0  0  0  0  0
    4.9748    0.0000    0.0000 O   0  0  0  0  0  0  0  0  0  0  0  0
    0.0000   -2.8915    0.0000 N   0  0  0  0  0  0  0  0  0  0  0  0
    8.3329   -1.3499    0.0000 N   0  0  0  0  0  0  0  0  0  0  0  0
    5.6914   -1.2416    0.0000 O   0  0  0  0  0  0  0  0  0  0  0  0
    7.6497   -3.9831    0.0000 Na  0  0  0  0  0 15  0  0  0  0  0  0
    5.6914   -0.3833    0.0000 Na  0  0  0  0  0 15  0  0  0  0  0  0
  1  2  1  0
  1  4  1  0
  1  5  1  0
  2 17  2  0
  2  3  1  0
  3  4  1  0
  3  9  1  1
  4 14  1  1
  5 18  2  0
  5 19  2  0
  5 24  1  0
  6  7  1  0
  6  8  1  0
  6 12  2  0
  7 10  1  0
  7 16  2  0
  8 11  2  0
  9 10  1  0
 10 21  2  0
 11 28  1  0
 11 13  1  0
 12 13  1  0
 14 22  1  0
 15 22  1  0
 15 25  2  0
 15 29  1  0
 16 26  1  0
 20 23  1  0
 20 27  2  0
 20 30  1  0
 23 26  1  0
M  CHG  4  24  -1  30  -1  31   1  32   1
M  END
>  <Formula>  (208) 
C12H12N6Na2O10S2

>  <FW>  (208) 
510.3674 (464.3890+22.9892+22.9892)

>  <DSSTox_CID>  (208) 
26712

>  <NR-Aromatase>  (208) 
0

>  <NR-AR>  (208) 
0

>  <NR-AR-LBD>  (208) 
0

>  <NR-ER>  (208) 
1

>  <NR-ER-LBD>  (208) 
0

>  <NR-PPAR-gamma>  (208) 
0

>  <NR-AhR>  (208) 
0

>  <SR-ATAD5>  (208) 
0

>  <SR-MMP>  (208) 
0

>  <SR-p53>  (208) 
0

$$$$
NCGC00021666-03
     RDKit          2D

 25 30  0  0  1  0  0  0  0  0999 V2000
    1.4414   -2.4658    0.0000 C   0  0  0  0  0  0  0  0  0  0  0  0
    2.1258   -2.8647    0.0000 C   0  0  0  0  0  0  0  0  0  0  0  0
    1.4414   -1.6409    0.0000 C   0  0  0  0  0  0  0  0  0  0  0  0
    0.7253   -2.8919    0.0000 C   0  0  0  0  0  0  0  0  0  0  0  0
    0.7253   -1.2555    0.0000 C   0  0  0  0  0  0  0  0  0  0  0  0
    0.2266   -2.0306    0.0000 O   0  0  0  0  0  0  0  0  0  0  0  0
    2.8420   -2.4658    0.0000 C   0  0  0  0  0  0  0  0  0  0  0  0
    3.2500   -2.8466    0.0000 N   0  0  0  0  0  0  0  0  0  0  0  0
    2.1258   -1.2420    0.0000 C   0  0  0  0  0  0  0  0  0  0  0  0
    2.8420   -1.6409    0.0000 C   0  0  0  0  0  0  0  0  0  0  0  0
    0.7253   -3.7213    0.0000 C   0  0  0  0  0  0  0  0  0  0  0  0
    1.4505   -3.2908    0.0000 C   0  0  0  0  0  0  0  0  0  0  0  0
    2.1258   -3.6987    0.0000 C   0  0  0  0  0  0  0  0  0  0  0  0
    4.0341   -2.8466    0.0000 C   0  0  0  0  0  0  0  0  0  0  0  0
    0.7253   -0.4170    0.0000 C   0  0  0  0  0  0  0  0  0  0  0  0
    3.0007   -3.2908    0.0000 C   0  0  0  0  0  0  0  0  0  0  0  0
    4.0341   -2.0080    0.0000 C   0  0  0  0  0  0  0  0  0  0  0  0
    4.5327   -1.2828    0.0000 C   0  0  0  0  0  0  0  0  0  0  0  0
    3.4494   -1.2828    0.0000 C   0  0  0  0  0  0  0  0  0  0  0  0
    1.4505   -4.1248    0.0000 C   0  0  0  0  0  0  0  0  0  0  0  0
    2.1258   -0.4170    0.0000 C   0  0  0  0  0  0  0  0  0  0  0  0
    2.1258   -2.0896    0.0000 O   0  0  0  0  0  0  0  0  0  0  0  0
    1.4505   -0.0136    0.0000 C   0  0  0  0  0  0  0  0  0  0  0  0
    0.0317   -4.1565    0.0000 C   0  0  0  0  0  0  0  0  0  0  0  0
    0.0000    0.0000    0.0000 O   0  0  0  0  0  0  0  0  0  0  0  0
  1  2  1  0
  1  3  1  0
  1  4  1  0
  1 12  1  1
  2  7  1  0
  2 13  1  0
  2 22  1  1
  3  5  2  0
  3  9  1  0
  4  6  1  6
  4 11  1  0
  5 15  1  0
  5  6  1  0
  7  8  1  0
  7 10  1  1
  8 16  1  0
  8 14  1  0
  9 10  1  0
  9 21  2  0
 11 20  1  0
 11 24  2  0
 12 16  1  0
 13 20  1  0
 14 17  1  0
 15 25  1  0
 15 23  2  0
 17 18  1  0
 17 19  1  0
 18 19  1  0
 21 23  1  0
M  END
>  <Formula>  (209) 
C21H25NO3

>  <FW>  (209) 
339.4281

>  <DSSTox_CID>  (209) 
3347

>  <NR-Aromatase>  (209) 
0

>  <NR-AR>  (209) 
0

>  <NR-AR-LBD>  (209) 
0

>  <NR-ER>  (209) 
1

>  <NR-ER-LBD>  (209) 
0

>  <NR-PPAR-gamma>  (209) 
0

>  <NR-AhR>  (209) 
0

>  <SR-ATAD5>  (209) 
0

>  <SR-MMP>  (209) 
0

>  <SR-p53>  (209) 
0

$$$$
NCGC00091560-01
     RDKit          2D

 29 31  0  0  1  0  0  0  0  0999 V2000
    4.3312   -3.7039    0.0000 N   0  0  0  0  0  0  0  0  0  0  0  0
    3.5320   -3.7039    0.0000 C   0  0  0  0  0  0  0  0  0  0  0  0
    3.5320   -2.8875    0.0000 C   0  0  0  0  0  0  0  0  0  0  0  0
    4.3312   -2.8875    0.0000 C   0  0  0  0  0  0  0  0  0  0  0  0
    5.0273   -4.0992    0.0000 C   0  0  0  0  0  0  0  0  0  0  0  0
    2.7070   -2.8875    0.0000 N   0  0  0  0  0  0  0  0  0  0  0  0
    2.2945   -2.2086    0.0000 C   0  0  0  0  0  0  0  0  0  0  0  0
    1.4609   -2.2086    0.0000 C   0  0  0  0  0  0  0  0  0  0  0  0
    5.0273   -2.4921    0.0000 S   0  0  0  0  0  0  0  0  0  0  0  0
    5.7578   -3.7039    0.0000 C   0  0  0  0  0  0  0  0  0  0  0  0
    1.0656   -2.8875    0.0000 C   0  0  0  0  0  0  0  0  0  0  0  0
    5.0273   -4.9242    0.0000 C   0  0  0  0  0  0  0  0  0  0  0  0
    7.8804   -4.1507    0.0000 C   0  0  0  0  0  0  0  0  0  0  0  0
    5.7578   -2.8789    0.0000 C   0  0  0  0  0  0  0  0  0  0  0  0
    1.1000   -1.4437    0.0000 N   0  0  0  0  0  0  0  0  0  0  0  0
    2.9562   -4.2624    0.0000 O   0  0  0  0  0  0  0  0  0  0  0  0
    1.3234   -3.6437    0.0000 O   0  0  0  0  0  0  0  0  0  0  0  0
    6.4539   -4.1507    0.0000 C   0  0  0  0  0  0  0  0  0  0  0  0
    2.7070   -1.4867    0.0000 O   0  0  0  0  0  0  0  0  0  0  0  0
    0.2234   -2.8875    0.0000 C   0  0  0  0  0  0  0  0  0  0  0  0
    7.1671   -3.7211    0.0000 O   0  0  0  0  0  0  0  0  0  0  0  0
    8.5937   -3.7640    0.0000 O   0  0  0  0  0  0  0  0  0  0  0  0
    5.7578   -5.3367    0.0000 O   0  0  0  0  0  0  0  0  0  0  0  0
    0.6359   -4.1164    0.0000 C   0  0  0  0  0  0  0  0  0  0  0  0
    0.0000   -3.6437    0.0000 C   0  0  0  0  0  0  0  0  0  0  0  0
    7.8804   -4.9929    0.0000 N   0  0  0  0  0  0  0  0  0  0  0  0
    4.3141   -5.3367    0.0000 O   0  0  0  0  0  0  0  0  0  0  0  0
    0.7562   -0.6875    0.0000 O   0  0  0  0  0  0  0  0  0  0  0  0
    1.1945    0.0000    0.0000 C   0  0  0  0  0  0  0  0  0  0  0  0
  1  2  1  0
  1  4  1  0
  1  5  1  0
  2 16  2  0
  2  3  1  0
  3  4  1  0
  3  6  1  1
  4  9  1  1
  5 10  2  0
  5 12  1  0
  6  7  1  0
  7  8  1  0
  7 19  2  0
  8 11  1  0
  8 15  2  3
  9 14  1  0
 10 14  1  0
 10 18  1  0
 11 17  1  0
 11 20  2  0
 12 23  2  0
 12 27  1  0
 13 21  1  0
 13 22  2  0
 13 26  1  0
 15 28  1  0
 17 24  1  0
 18 21  1  0
 20 25  1  0
 24 25  2  0
 28 29  1  0
M  END
>  <Formula>  (210) 
C16H16N4O8S

>  <FW>  (210) 
424.3852

>  <DSSTox_CID>  (210) 
2774

>  <NR-Aromatase>  (210) 
0

>  <NR-AR>  (210) 
0

>  <NR-AR-LBD>  (210) 
0

>  <NR-ER>  (210) 
1

>  <NR-ER-LBD>  (210) 
1

>  <NR-PPAR-gamma>  (210) 
0

>  <NR-AhR>  (210) 
0

>  <SR-ATAD5>  (210) 
0

>  <SR-MMP>  (210) 
0

>  <SR-p53>  (210) 
0

$$$$
NCGC00016582-01
     RDKit          2D

100103  0  0  1  0  0  0  0  0999 V2000
    0.0000  -12.1995    0.0000 C   0  0  0  0  0  0  0  0  0  0  0  0
    0.6810  -12.6776    0.0000 C   0  0  0  0  0  0  0  0  0  0  0  0
    1.4344  -12.3299    0.0000 C   0  0  0  0  0  0  0  0  0  0  0  0
    1.4779  -11.5040    0.0000 C   0  0  0  0  0  0  0  0  0  0  0  0
    2.1009  -12.8080    0.0000 C   0  0  0  0  0  0  0  0  0  0  0  0
    2.0140  -13.6194    0.0000 N   0  0  0  0  0  0  0  0  0  0  0  0
    2.8543  -12.4748    0.0000 C   0  0  0  0  0  0  0  0  0  0  0  0
    3.0137  -11.6489    0.0000 N   0  0  0  0  0  0  0  0  0  0  0  0
    3.8395  -11.5185    0.0000 C   0  0  0  0  0  0  0  0  0  0  0  0
    4.1873  -12.3009    0.0000 C   0  0  0  0  0  0  0  0  0  0  0  0
    3.5787  -12.8950    0.0000 S   0  0  0  0  0  0  0  0  0  0  0  0
    4.2886  -10.8521    0.0000 C   0  0  0  0  0  0  0  0  0  0  0  0
    3.9265  -10.1131    0.0000 O   0  0  0  0  0  0  0  0  0  0  0  0
    5.1001  -10.9100    0.0000 N   0  0  0  0  0  0  0  0  0  0  0  0
    5.5057  -11.6199    0.0000 C   0  0  0  0  0  0  0  0  0  0  0  0
    5.3029  -12.3733    0.0000 C   0  0  0  0  0  0  0  0  0  0  0  0
    5.5347  -13.1267    0.0000 C   0  0  0  0  0  0  0  0  0  0  0  0
    4.9407  -13.7353    0.0000 C   0  0  0  0  0  0  0  0  0  0  0  0
    6.3026  -13.4310    0.0000 C   0  0  0  0  0  0  0  0  0  0  0  0
    6.3461  -11.4896    0.0000 C   0  0  0  0  0  0  0  0  0  0  0  0
    6.4765  -10.6782    0.0000 O   0  0  0  0  0  0  0  0  0  0  0  0
    6.7807  -12.1850    0.0000 N   0  0  0  0  0  0  0  0  0  0  0  0
    7.5776  -12.3009    0.0000 C   0  0  0  0  0  0  0  0  0  0  0  0
    7.9543  -13.0543    0.0000 C   0  0  0  0  0  0  0  0  0  0  0  0
    8.7802  -13.0543    0.0000 C   0  0  0  0  0  0  0  0  0  0  0  0
    9.2003  -13.7643    0.0000 C   0  0  0  0  0  0  0  0  0  0  0  0
    8.8236  -14.4887    0.0000 O   0  0  0  0  0  0  0  0  0  0  0  0
   10.0262  -13.7353    0.0000 O   0  0  0  0  0  0  0  0  0  0  0  0
    8.0557  -11.6344    0.0000 C   0  0  0  0  0  0  0  0  0  0  0  0
    7.6066  -10.9534    0.0000 O   0  0  0  0  0  0  0  0  0  0  0  0
    8.8671  -11.5620    0.0000 N   0  0  0  0  0  0  0  0  0  0  0  0
    9.2583  -10.8375    0.0000 C   0  0  0  0  0  0  0  0  0  0  0  0
   10.1131  -10.9245    0.0000 C   0  0  0  0  0  0  0  0  0  0  0  0
   10.2870  -10.1131    0.0000 C   0  0  0  0  0  0  0  0  0  0  0  0
   10.9390  -10.9245    0.0000 C   0  0  0  0  0  0  0  0  0  0  0  0
   11.3881  -11.5910    0.0000 C   0  0  0  0  0  0  0  0  0  0  0  0
    8.8816  -10.1131    0.0000 C   0  0  0  0  0  0  0  0  0  0  0  0
    8.0702   -9.9393    0.0000 O   0  0  0  0  0  0  0  0  0  0  0  0
    9.2583   -9.3742    0.0000 N   0  0  0  0  0  0  0  0  0  0  0  0
    8.8961   -8.6498    0.0000 C   0  0  0  0  0  0  0  0  0  0  0  0
    8.1427   -8.4035    0.0000 C   0  0  0  0  0  0  0  0  0  0  0  0
    7.3893   -8.7222    0.0000 C   0  0  0  0  0  0  0  0  0  0  0  0
    6.7517   -8.2006    0.0000 C   0  0  0  0  0  0  0  0  0  0  0  0
    5.9548   -8.2296    0.0000 C   0  0  0  0  0  0  0  0  0  0  0  0
    5.4912   -7.5486    0.0000 N   0  0  0  0  0  0  0  0  0  0  0  0
    4.6799   -7.4762    0.0000 C   0  0  0  0  0  0  0  0  0  0  0  0
    4.2597   -8.2151    0.0000 O   0  0  0  0  0  0  0  0  0  0  0  0
    4.1438   -6.7952    0.0000 C   0  0  0  0  0  0  0  0  0  0  0  0
    3.3904   -7.0415    0.0000 C   0  0  0  0  0  0  0  0  0  0  0  0
    2.6370   -6.8242    0.0000 C   0  0  0  0  0  0  0  0  0  0  0  0
    2.0864   -7.4762    0.0000 N   0  0  0  0  0  0  0  0  0  0  0  0
    2.2457   -6.1142    0.0000 O   0  0  0  0  0  0  0  0  0  0  0  0
    4.4480   -6.0273    0.0000 N   0  0  0  0  0  0  0  0  0  0  0  0
    4.0858   -5.2884    0.0000 C   0  0  0  0  0  0  0  0  0  0  0  0
    3.2455   -5.3174    0.0000 O   0  0  0  0  0  0  0  0  0  0  0  0
    4.3176   -4.4625    0.0000 C   0  0  0  0  0  0  0  0  0  0  0  0
    3.6656   -4.0134    0.0000 C   0  0  0  0  0  0  0  0  0  0  0  0
    3.2020   -3.3904    0.0000 C   0  0  0  0  0  0  0  0  0  0  0  0
    2.3761   -3.5208    0.0000 O   0  0  0  0  0  0  0  0  0  0  0  0
    3.3759   -2.5790    0.0000 O   0  0  0  0  0  0  0  0  0  0  0  0
    5.1001   -4.1873    0.0000 N   0  0  0  0  0  0  0  0  0  0  0  0
    5.3174   -3.3904    0.0000 C   0  0  0  0  0  0  0  0  0  0  0  0
    4.6364   -2.8977    0.0000 O   0  0  0  0  0  0  0  0  0  0  0  0
    6.0128   -2.8687    0.0000 C   0  0  0  0  0  0  0  0  0  0  0  0
    5.7231   -2.1153    0.0000 C   0  0  0  0  0  0  0  0  0  0  0  0
    6.0273   -1.3764    0.0000 C   0  0  0  0  0  0  0  0  0  0  0  0
    6.8532   -1.2750    0.0000 C   0  0  0  0  0  0  0  0  0  0  0  0
    7.0995   -0.4491    0.0000 N   0  0  0  0  0  0  0  0  0  0  0  0
    6.3461    0.0000    0.0000 C   0  0  0  0  0  0  0  0  0  0  0  0
    5.7085   -0.5941    0.0000 N   0  0  0  0  0  0  0  0  0  0  0  0
    6.7807   -3.1730    0.0000 N   0  0  0  0  0  0  0  0  0  0  0  0
    7.5197   -2.8543    0.0000 C   0  0  0  0  0  0  0  0  0  0  0  0
    7.5631   -2.0284    0.0000 O   0  0  0  0  0  0  0  0  0  0  0  0
    8.3744   -2.9992    0.0000 C   0  0  0  0  0  0  0  0  0  0  0  0
    8.7222   -2.2747    0.0000 C   0  0  0  0  0  0  0  0  0  0  0  0
    9.3887   -1.8256    0.0000 C   0  0  0  0  0  0  0  0  0  0  0  0
   10.0841   -2.2603    0.0000 C   0  0  0  0  0  0  0  0  0  0  0  0
   10.8521   -2.0140    0.0000 C   0  0  0  0  0  0  0  0  0  0  0  0
   10.9969   -1.1881    0.0000 C   0  0  0  0  0  0  0  0  0  0  0  0
   10.3015   -0.7099    0.0000 C   0  0  0  0  0  0  0  0  0  0  0  0
    9.5336   -1.0142    0.0000 C   0  0  0  0  0  0  0  0  0  0  0  0
    8.6208   -3.8106    0.0000 N   0  0  0  0  0  0  0  0  0  0  0  0
    9.4176   -4.0134    0.0000 C   0  0  0  0  0  0  0  0  0  0  0  0
    9.7074   -3.2455    0.0000 O   0  0  0  0  0  0  0  0  0  0  0  0
   10.0841   -4.5349    0.0000 C   0  0  0  0  0  0  0  0  0  0  0  0
    9.9248   -5.3463    0.0000 N   0  0  0  0  0  0  0  0  0  0  0  0
   10.3739   -5.9983    0.0000 C   0  0  0  0  0  0  0  0  0  0  0  0
   11.2142   -5.9694    0.0000 O   0  0  0  0  0  0  0  0  0  0  0  0
   10.2580   -6.8387    0.0000 C   0  0  0  0  0  0  0  0  0  0  0  0
   10.9969   -7.1719    0.0000 C   0  0  0  0  0  0  0  0  0  0  0  0
   11.2867   -7.9108    0.0000 C   0  0  0  0  0  0  0  0  0  0  0  0
   12.0836   -8.1137    0.0000 C   0  0  0  0  0  0  0  0  0  0  0  0
   12.3154   -8.9105    0.0000 N   0  0  0  0  0  0  0  0  0  0  0  0
    9.5480   -7.2588    0.0000 N   0  0  0  0  0  0  0  0  0  0  0  0
    9.5191   -8.0847    0.0000 C   0  0  0  0  0  0  0  0  0  0  0  0
   10.2435   -8.5049    0.0000 O   0  0  0  0  0  0  0  0  0  0  0  0
   10.8665   -4.2162    0.0000 C   0  0  0  0  0  0  0  0  0  0  0  0
   11.3301   -4.8972    0.0000 C   0  0  0  0  0  0  0  0  0  0  0  0
   11.6199   -3.8540    0.0000 C   0  0  0  0  0  0  0  0  0  0  0  0
   12.3444   -4.2017    0.0000 C   0  0  0  0  0  0  0  0  0  0  0  0
  1  2  1  0
  2  3  1  0
  3  4  1  1
  3  5  1  0
  5  6  1  6
  5  7  1  0
  7  8  2  0
  7 11  1  0
  8  9  1  0
  9 10  1  0
  9 12  1  6
 10 11  1  0
 12 13  2  0
 12 14  1  0
 14 15  1  0
 15 16  1  6
 15 20  1  0
 16 17  1  0
 17 18  1  0
 17 19  1  0
 20 21  2  0
 20 22  1  0
 22 23  1  0
 23 24  1  6
 23 29  1  0
 24 25  1  0
 25 26  1  0
 26 27  1  0
 26 28  2  0
 29 30  2  0
 29 31  1  0
 32 31  1  1
 32 33  1  0
 32 37  1  0
 33 34  1  6
 33 35  1  0
 35 36  1  0
 37 38  2  0
 37 39  1  0
 40 39  1  6
 40 41  1  0
 40 95  1  0
 41 42  1  0
 42 43  1  0
 43 44  1  0
 44 45  1  0
 45 46  1  0
 46 47  2  0
 46 48  1  0
 48 49  1  1
 48 53  1  0
 49 50  1  0
 50 51  1  0
 50 52  2  0
 53 54  1  0
 54 55  2  0
 54 56  1  0
 56 57  1  1
 56 61  1  0
 57 58  1  0
 58 59  1  0
 58 60  2  0
 61 62  1  0
 62 63  2  0
 62 64  1  0
 64 65  1  1
 64 71  1  0
 65 66  1  0
 66 67  2  0
 66 70  1  0
 67 68  1  0
 68 69  2  0
 69 70  1  0
 71 72  1  0
 72 73  2  0
 72 74  1  0
 74 75  1  1
 74 82  1  0
 75 76  1  0
 76 77  2  0
 76 81  1  0
 77 78  1  0
 78 79  2  0
 79 80  1  0
 80 81  2  0
 82 83  1  0
 83 84  2  0
 83 85  1  0
 85 86  1  1
 85 97  1  0
 86 87  1  0
 87 88  2  0
 87 89  1  0
 89 90  1  1
 89 94  1  0
 90 91  1  0
 91 92  1  0
 92 93  1  0
 94 95  1  0
 95 96  2  0
 97 98  1  1
 97 99  1  0
 99100  1  0
M  END
>  <Formula>  (211) 
C66H103N17O16S

>  <FW>  (211) 
1422.6933

>  <DSSTox_CID>  (211) 
25355

>  <NR-Aromatase>  (211) 
0

>  <NR-AR>  (211) 
0

>  <NR-AR-LBD>  (211) 
0

>  <NR-ER>  (211) 
1

>  <NR-ER-LBD>  (211) 
0

>  <NR-PPAR-gamma>  (211) 
0

>  <NR-AhR>  (211) 
0

>  <SR-ATAD5>  (211) 
0

>  <SR-MMP>  (211) 
0

>  <SR-p53>  (211) 
0

$$$$
NCGC00167444-01
     RDKit          2D

 42 46  0  0  1  0  0  0  0  0999 V2000
    7.2858   -2.6726    0.0000 N   0  0  0  0  0  0  0  0  0  0  0  0
    6.3213   -2.6726    0.0000 C   0  0  0  0  0  0  0  0  0  0  0  0
    6.3213   -1.7895    0.0000 C   0  0  0  0  0  0  0  0  0  0  0  0
    7.2858   -1.7895    0.0000 C   0  0  0  0  0  0  0  0  0  0  0  0
   10.2373   -1.8011    0.0000 C   0  0  0  0  0  0  0  0  0  0  0  0
    8.0178   -3.1026    0.0000 C   0  0  0  0  0  0  0  0  0  0  0  0
   10.9345   -1.3595    0.0000 N   0  0  0  0  0  0  0  0  0  0  0  0
    9.5750   -1.3595    0.0000 N   0  0  0  0  0  0  0  0  0  0  0  0
    9.8538   -0.5461    0.0000 N   0  0  0  0  0  0  0  0  0  0  0  0
   10.6788   -0.5461    0.0000 N   0  0  0  0  0  0  0  0  0  0  0  0
    5.6125   -1.7895    0.0000 N   0  0  0  0  0  0  0  0  0  0  0  0
    2.8585   -1.6617    0.0000 C   0  0  0  0  0  0  0  0  0  0  0  0
    8.0178   -1.3595    0.0000 S   0  0  0  0  0  0  0  0  0  0  0  0
    2.1497   -1.2550    0.0000 C   0  0  0  0  0  0  0  0  0  0  0  0
    8.7732   -2.6494    0.0000 C   0  0  0  0  0  0  0  0  0  0  0  0
    4.9385   -1.3015    0.0000 C   0  0  0  0  0  0  0  0  0  0  0  0
    3.5557   -1.2782    0.0000 N   0  0  0  0  0  0  0  0  0  0  0  0
    4.2529   -1.6965    0.0000 C   0  0  0  0  0  0  0  0  0  0  0  0
    1.4177   -1.6617    0.0000 C   0  0  0  0  0  0  0  0  0  0  0  0
    8.0178   -3.9043    0.0000 C   0  0  0  0  0  0  0  0  0  0  0  0
   10.2373   -2.6494    0.0000 S   0  0  0  0  0  0  0  0  0  0  0  0
    2.1497   -0.4183    0.0000 C   0  0  0  0  0  0  0  0  0  0  0  0
    1.4409    0.0000    0.0000 N   0  0  0  0  0  0  0  0  0  0  0  0
    8.7732   -1.7895    0.0000 C   0  0  0  0  0  0  0  0  0  0  0  0
    0.6856   -1.2433    0.0000 C   0  0  0  0  0  0  0  0  0  0  0  0
    5.8333   -3.2536    0.0000 O   0  0  0  0  0  0  0  0  0  0  0  0
    9.5052   -3.0329    0.0000 C   0  0  0  0  0  0  0  0  0  0  0  0
    4.2529   -2.4867    0.0000 C   0  0  0  0  0  0  0  0  0  0  0  0
    2.8585   -2.4867    0.0000 O   0  0  0  0  0  0  0  0  0  0  0  0
    4.9385   -0.4299    0.0000 O   0  0  0  0  0  0  0  0  0  0  0  0
    8.7267   -4.3343    0.0000 O   0  0  0  0  0  0  0  0  0  0  0  0
    0.6856   -0.4183    0.0000 C   0  0  0  0  0  0  0  0  0  0  0  0
    3.5441   -2.8818    0.0000 C   0  0  0  0  0  0  0  0  0  0  0  0
    4.9618   -2.8818    0.0000 C   0  0  0  0  0  0  0  0  0  0  0  0
    1.4177   -2.5099    0.0000 O   0  0  0  0  0  0  0  0  0  0  0  0
   11.6201   -1.6501    0.0000 C   0  0  0  0  0  0  0  0  0  0  0  0
    7.3323   -4.3343    0.0000 O   0  0  0  0  0  0  0  0  0  0  0  0
    4.2529   -4.1135    0.0000 C   0  0  0  0  0  0  0  0  0  0  0  0
    4.9618   -3.7185    0.0000 C   0  0  0  0  0  0  0  0  0  0  0  0
    3.5441   -3.6952    0.0000 C   0  0  0  0  0  0  0  0  0  0  0  0
    4.2529   -4.9501    0.0000 O   0  0  0  0  0  0  0  0  0  0  0  0
    0.0000   -0.0116    0.0000 C   0  0  0  0  0  0  0  0  0  0  0  0
  1  2  1  0
  1  4  1  0
  1  6  1  0
  2 26  2  0
  2  3  1  0
  3  4  1  0
  3 11  1  1
  4 13  1  1
  5 21  1  0
  5  7  1  0
  5  8  2  0
  6 15  2  0
  6 20  1  0
  7 10  1  0
  7 36  1  0
  8  9  1  0
  9 10  2  0
 11 16  1  0
 12 17  1  0
 12 14  1  0
 12 29  2  0
 13 24  1  0
 14 19  2  0
 14 22  1  0
 15 24  1  0
 15 27  1  0
 16 18  1  0
 16 30  2  0
 18 17  1  1
 18 28  1  0
 19 25  1  0
 19 35  1  0
 20 31  2  0
 20 37  1  0
 21 27  1  0
 22 23  2  0
 23 32  1  0
 25 32  2  0
 28 33  2  0
 28 34  1  0
 32 42  1  0
 33 40  1  0
 34 39  2  0
 38 39  1  0
 38 41  1  0
 38 40  2  0
M  END
>  <Formula>  (212) 
C25H24N8O7S2

>  <FW>  (212) 
612.6375

>  <DSSTox_CID>  (212) 
26630

>  <NR-Aromatase>  (212) 
0

>  <NR-AR>  (212) 
0

>  <NR-AR-LBD>  (212) 
0

>  <NR-ER>  (212) 
1

>  <NR-ER-LBD>  (212) 
0

>  <NR-PPAR-gamma>  (212) 
0

>  <NR-AhR>  (212) 
0

>  <SR-ATAD5>  (212) 
0

>  <SR-MMP>  (212) 
0

>  <SR-p53>  (212) 
0

$$$$
NCGC00160628-01
     RDKit          2D

 43 47  0  0  1  0  0  0  0  0999 V2000
    2.8544   -7.0080    0.0000 C   0  0  0  0  0  0  0  0  0  0  0  0
    2.8544   -6.1830    0.0000 C   0  0  0  0  0  0  0  0  0  0  0  0
    3.5751   -5.7752    0.0000 C   0  0  0  0  0  0  0  0  0  0  0  0
    4.2864   -6.1830    0.0000 C   0  0  0  0  0  0  0  0  0  0  0  0
    4.9976   -5.7752    0.0000 C   0  0  0  0  0  0  0  0  0  0  0  0
    5.7089   -6.1830    0.0000 C   0  0  0  0  0  0  0  0  0  0  0  0
    5.7089   -7.0080    0.0000 C   0  0  0  0  0  0  0  0  0  0  0  0
    4.9976   -7.4253    0.0000 C   0  0  0  0  0  0  0  0  0  0  0  0
    4.2864   -7.0080    0.0000 C   0  0  0  0  0  0  0  0  0  0  0  0
    3.5751   -7.4253    0.0000 O   0  0  0  0  0  0  0  0  0  0  0  0
    6.4296   -7.4253    0.0000 O   0  0  0  0  0  0  0  0  0  0  0  0
    4.9976   -4.9502    0.0000 O   0  0  0  0  0  0  0  0  0  0  0  0
    3.5751   -4.9502    0.0000 O   0  0  0  0  0  0  0  0  0  0  0  0
    2.1432   -5.7752    0.0000 O   0  0  0  0  0  0  0  0  0  0  0  0
    2.1432   -4.9502    0.0000 C   0  0  0  0  0  0  0  0  0  0  0  0
    2.8544   -4.5330    0.0000 O   0  0  0  0  0  0  0  0  0  0  0  0
    2.8544   -3.7079    0.0000 C   0  0  0  0  0  0  0  0  0  0  0  0
    3.5751   -3.3001    0.0000 C   0  0  0  0  0  0  0  0  0  0  0  0
    3.5751   -2.4751    0.0000 O   0  0  0  0  0  0  0  0  0  0  0  0
    4.2864   -2.0578    0.0000 C   0  0  0  0  0  0  0  0  0  0  0  0
    4.2864   -1.2328    0.0000 C   0  0  0  0  0  0  0  0  0  0  0  0
    4.9976   -0.8251    0.0000 C   0  0  0  0  0  0  0  0  0  0  0  0
    5.7089   -1.2328    0.0000 C   0  0  0  0  0  0  0  0  0  0  0  0
    6.4296   -0.8251    0.0000 O   0  0  0  0  0  0  0  0  0  0  0  0
    5.7089   -2.0578    0.0000 C   0  0  0  0  0  0  0  0  0  0  0  0
    4.9976   -2.4751    0.0000 O   0  0  0  0  0  0  0  0  0  0  0  0
    6.4296   -2.4751    0.0000 C   0  0  0  0  0  0  0  0  0  0  0  0
    4.9976    0.0000    0.0000 O   0  0  0  0  0  0  0  0  0  0  0  0
    3.5751   -0.8251    0.0000 O   0  0  0  0  0  0  0  0  0  0  0  0
    2.1432   -3.3001    0.0000 C   0  0  0  0  0  0  0  0  0  0  0  0
    2.1432   -2.4751    0.0000 O   0  0  0  0  0  0  0  0  0  0  0  0
    1.4319   -3.7079    0.0000 C   0  0  0  0  0  0  0  0  0  0  0  0
    1.4319   -4.5330    0.0000 C   0  0  0  0  0  0  0  0  0  0  0  0
    0.7113   -4.9502    0.0000 O   0  0  0  0  0  0  0  0  0  0  0  0
    0.7113   -3.3001    0.0000 O   0  0  0  0  0  0  0  0  0  0  0  0
    2.1432   -7.4253    0.0000 C   0  0  0  0  0  0  0  0  0  0  0  0
    2.1432   -8.2504    0.0000 C   0  0  0  0  0  0  0  0  0  0  0  0
    1.4319   -8.6581    0.0000 C   0  0  0  0  0  0  0  0  0  0  0  0
    0.7113   -8.2504    0.0000 C   0  0  0  0  0  0  0  0  0  0  0  0
    0.0000   -8.6581    0.0000 O   0  0  0  0  0  0  0  0  0  0  0  0
    0.7113   -7.4253    0.0000 C   0  0  0  0  0  0  0  0  0  0  0  0
    1.4319   -7.0080    0.0000 C   0  0  0  0  0  0  0  0  0  0  0  0
    1.4319   -9.4832    0.0000 O   0  0  0  0  0  0  0  0  0  0  0  0
  1  2  2  0
  1 10  1  0
  1 36  1  0
  2  3  1  0
  2 14  1  0
  3  4  1  0
  3 13  2  0
  4  5  2  0
  4  9  1  0
  5  6  1  0
  5 12  1  0
  6  7  2  0
  7  8  1  0
  7 11  1  0
  8  9  2  0
  9 10  1  0
 15 14  1  1
 15 16  1  0
 15 33  1  0
 16 17  1  0
 17 18  1  1
 17 30  1  0
 18 19  1  0
 20 19  1  1
 20 21  1  0
 20 26  1  0
 21 22  1  0
 21 29  1  6
 22 23  1  0
 22 28  1  6
 23 24  1  1
 23 25  1  0
 25 26  1  0
 25 27  1  6
 30 31  1  6
 30 32  1  0
 32 33  1  0
 32 35  1  1
 33 34  1  6
 36 37  2  0
 36 42  1  0
 37 38  1  0
 38 39  2  0
 38 43  1  0
 39 40  1  0
 39 41  1  0
 41 42  2  0
M  END
>  <Formula>  (213) 
C27H30O16

>  <FW>  (213) 
610.5175

>  <DSSTox_CID>  (213) 
2326

>  <NR-Aromatase>  (213) 
0

>  <NR-AR>  (213) 
0

>  <NR-AR-LBD>  (213) 
0

>  <NR-ER>  (213) 
1

>  <NR-ER-LBD>  (213) 
0

>  <NR-PPAR-gamma>  (213) 
0

>  <NR-AhR>  (213) 
0

>  <SR-ATAD5>  (213) 
0

>  <SR-MMP>  (213) 
0

>  <SR-p53>  (213) 
0

$$$$
NCGC00254151-01
     RDKit          2D

 20 23  0  0  0  0  0  0  0  0999 V2000
    2.5029   -0.8367    0.0000 C   0  0  0  0  0  0  0  0  0  0  0  0
    2.0178   -1.5046    0.0000 C   0  0  0  0  0  0  0  0  0  0  0  0
    2.1796   -0.0774    0.0000 C   0  0  0  0  0  0  0  0  0  0  0  0
    1.2022   -1.4132    0.0000 C   0  0  0  0  0  0  0  0  0  0  0  0
    1.3499    0.0000    0.0000 C   0  0  0  0  0  0  0  0  0  0  0  0
    0.8648   -0.6538    0.0000 C   0  0  0  0  0  0  0  0  0  0  0  0
    3.2904   -1.0968    0.0000 C   0  0  0  0  0  0  0  0  0  0  0  0
    3.2904   -1.9194    0.0000 C   0  0  0  0  0  0  0  0  0  0  0  0
    2.5029   -2.1655    0.0000 C   0  0  0  0  0  0  0  0  0  0  0  0
    4.0778   -0.8437    0.0000 N   0  0  0  0  0  0  0  0  0  0  0  0
    4.5629   -1.5046    0.0000 C   0  0  0  0  0  0  0  0  0  0  0  0
    4.0778   -2.1655    0.0000 S   0  0  0  0  0  0  0  0  0  0  0  0
    5.3785   -1.4835    0.0000 C   0  0  0  0  0  0  0  0  0  0  0  0
    5.8004   -0.7663    0.0000 C   0  0  0  0  0  0  0  0  0  0  0  0
    5.8004   -2.2006    0.0000 C   0  0  0  0  0  0  0  0  0  0  0  0
    6.6229   -0.7663    0.0000 C   0  0  0  0  0  0  0  0  0  0  0  0
    6.6159   -2.2076    0.0000 C   0  0  0  0  0  0  0  0  0  0  0  0
    7.0308   -1.4835    0.0000 C   0  0  0  0  0  0  0  0  0  0  0  0
    0.0000   -0.4359    0.0000 Cl  0  0  0  0  0  0  0  0  0  0  0  0
    3.2904   -0.2672    0.0000 O   0  0  0  0  0  0  0  0  0  0  0  0
  1  3  2  0
  1  7  1  0
  1  2  1  0
  2  4  2  0
  2  9  1  0
  3  5  1  0
  4  6  1  0
  5  6  2  0
  6 19  1  0
  7 10  1  0
  7  8  1  0
  7 20  1  0
  8  9  1  0
  8 12  1  0
 10 11  2  0
 11 12  1  0
 11 13  1  0
 13 14  2  0
 13 15  1  0
 14 16  1  0
 15 17  2  0
 16 18  2  0
 17 18  1  0
M  END
>  <Formula>  (214) 
C16H12ClNOS

>  <FW>  (214) 
301.7906

>  <DSSTox_CID>  (214) 
27338

>  <NR-AR>  (214) 
0

>  <NR-AR-LBD>  (214) 
0

>  <NR-ER>  (214) 
1

>  <NR-ER-LBD>  (214) 
0

>  <NR-PPAR-gamma>  (214) 
0

>  <NR-AhR>  (214) 
1

>  <SR-ARE>  (214) 
1

>  <SR-ATAD5>  (214) 
0

>  <SR-HSE>  (214) 
0

>  <SR-MMP>  (214) 
1

>  <SR-p53>  (214) 
0

$$$$
NCGC00164545-01
     RDKit          2D

 33 34  0  0  0  0  0  0  0  0999 V2000
    2.8589   -3.5607    0.0000 C   0  0  0  0  0  0  0  0  0  0  0  0
    2.8589   -4.3824    0.0000 C   0  0  0  0  0  0  0  0  0  0  0  0
    3.5778   -4.8018    0.0000 N   0  0  0  0  0  0  0  0  0  0  0  0
    4.2797   -4.3824    0.0000 C   0  0  0  0  0  0  0  0  0  0  0  0
    4.2797   -3.5607    0.0000 C   0  0  0  0  0  0  0  0  0  0  0  0
    3.5778   -3.1413    0.0000 C   0  0  0  0  0  0  0  0  0  0  0  0
    4.9816   -3.1413    0.0000 C   0  0  0  0  0  0  0  0  0  0  0  0
    5.7005   -3.5521    0.0000 O   0  0  0  0  0  0  0  0  0  0  0  0
    4.9816   -2.3282    0.0000 O   0  0  0  0  0  0  0  0  0  0  0  0
    6.4024   -3.1413    0.0000 C   0  0  0  0  0  0  0  0  0  0  0  0
    7.1214   -3.5521    0.0000 C   0  0  0  0  0  0  0  0  0  0  0  0
    4.9816   -4.8018    0.0000 C   0  0  0  0  0  0  0  0  0  0  0  0
    2.1484   -3.1413    0.0000 C   0  0  0  0  0  0  0  0  0  0  0  0
    1.4294   -3.5521    0.0000 O   0  0  0  0  0  0  0  0  0  0  0  0
    2.1484   -2.3367    0.0000 O   0  0  0  0  0  0  0  0  0  0  0  0
    0.7275   -3.1413    0.0000 C   0  0  0  0  0  0  0  0  0  0  0  0
    0.0000   -3.5521    0.0000 C   0  0  0  0  0  0  0  0  0  0  0  0
    2.1484   -4.8018    0.0000 C   0  0  0  0  0  0  0  0  0  0  0  0
    2.8503   -0.4109    0.0000 C   0  0  0  0  0  0  0  0  0  0  0  0
    2.8503   -1.2582    0.0000 C   0  0  0  0  0  0  0  0  0  0  0  0
    3.5778   -1.6862    0.0000 C   0  0  0  0  0  0  0  0  0  0  0  0
    4.2968   -1.2582    0.0000 C   0  0  0  0  0  0  0  0  0  0  0  0
    4.2968   -0.4109    0.0000 C   0  0  0  0  0  0  0  0  0  0  0  0
    3.5778    0.0000    0.0000 C   0  0  0  0  0  0  0  0  0  0  0  0
    4.9987   -1.6776    0.0000 C   0  0  0  0  0  0  0  0  0  0  0  0
    5.7091   -1.2582    0.0000 C   0  0  0  0  0  0  0  0  0  0  0  0
    6.4110   -1.6776    0.0000 C   0  0  0  0  0  0  0  0  0  0  0  0
    7.1300   -1.2496    0.0000 O   0  0  0  0  0  0  0  0  0  0  0  0
    6.4110   -2.4908    0.0000 O   0  0  0  0  0  0  0  0  0  0  0  0
    7.8404   -1.6605    0.0000 C   0  0  0  0  0  0  0  0  0  0  0  0
    7.4467   -2.3624    0.0000 C   0  0  0  0  0  0  0  0  0  0  0  0
    8.5594   -2.0628    0.0000 C   0  0  0  0  0  0  0  0  0  0  0  0
    8.2512   -0.9501    0.0000 C   0  0  0  0  0  0  0  0  0  0  0  0
  1  6  1  0
  1 13  1  0
  1  2  2  0
  2 18  1  0
  2  3  1  0
  3  4  1  0
  4  5  2  0
  4 12  1  0
  5  6  1  0
  5  7  1  0
  6 21  1  0
  7  8  1  0
  7  9  2  0
  8 10  1  0
 10 11  1  0
 13 14  1  0
 13 15  2  0
 14 16  1  0
 16 17  1  0
 19 20  2  0
 19 24  1  0
 20 21  1  0
 21 22  2  0
 22 23  1  0
 22 25  1  0
 23 24  2  0
 25 26  2  0
 26 27  1  0
 27 28  1  0
 27 29  2  0
 28 30  1  0
 30 31  1  0
 30 32  1  0
 30 33  1  0
M  END
>  <Formula>  (215) 
C26H33NO6

>  <FW>  (215) 
455.5433

>  <DSSTox_CID>  (215) 
26429

>  <NR-Aromatase>  (215) 
1

>  <NR-AR>  (215) 
0

>  <NR-ER-LBD>  (215) 
1

>  <NR-PPAR-gamma>  (215) 
1

>  <NR-AhR>  (215) 
1

>  <SR-p53>  (215) 
1

$$$$
NCGC00183024-01
     RDKit          2D

 60 64  0  0  0  0  0  0  0  0999 V2000
    3.5853   -6.2074    0.0000 N   0  0  0  0  0  0  0  0  0  0  0  0
    4.2916   -6.6034    0.0000 C   0  0  0  0  0  0  0  0  0  0  0  0
    4.2916   -7.4275    0.0000 C   0  0  0  0  0  0  0  0  0  0  0  0
    2.8790   -6.6034    0.0000 C   0  0  0  0  0  0  0  0  0  0  0  0
    2.8790   -7.4275    0.0000 C   0  0  0  0  0  0  0  0  0  0  0  0
    3.5853   -5.3405    0.0000 C   0  0  0  0  0  0  0  0  0  0  0  0
    7.1171   -2.4722    0.0000 C   0  0  0  0  0  0  0  0  0  0  0  0
    8.5298   -1.6482    0.0000 C   0  0  0  0  0  0  0  0  0  0  0  0
    8.5298   -2.4722    0.0000 N   0  0  0  0  0  0  0  0  0  0  0  0
    7.8234   -2.8575    0.0000 C   0  0  0  0  0  0  0  0  0  0  0  0
    4.9980   -7.8556    0.0000 C   0  0  0  0  0  0  0  0  0  0  0  0
    2.1726   -6.2074    0.0000 C   0  0  0  0  0  0  0  0  0  0  0  0
    9.9425   -6.6034    0.0000 N   0  0  0  0  0  0  0  0  0  0  0  0
    8.5298   -7.4275    0.0000 N   0  0  0  0  0  0  0  0  0  0  0  0
    2.8790   -4.9552    0.0000 C   0  0  0  0  0  0  0  0  0  0  0  0
    5.7044   -7.4275    0.0000 C   0  0  0  0  0  0  0  0  0  0  0  0
    2.1726   -7.8556    0.0000 C   0  0  0  0  0  0  0  0  0  0  0  0
    6.4107   -2.8575    0.0000 N   0  0  0  0  0  0  0  0  0  0  0  0
    8.5298   -4.9552    0.0000 C   0  0  0  0  0  0  0  0  0  0  0  0
    4.2916   -4.9552    0.0000 O   0  0  0  0  0  0  0  0  0  0  0  0
    7.1171   -1.6482    0.0000 O   0  0  0  0  0  0  0  0  0  0  0  0
    7.8234   -1.2522    0.0000 O   0  0  0  0  0  0  0  0  0  0  0  0
    9.2362   -1.2522    0.0000 C   0  0  0  0  0  0  0  0  0  0  0  0
    7.8234   -3.7244    0.0000 C   0  0  0  0  0  0  0  0  0  0  0  0
    5.7044   -6.6034    0.0000 O   0  0  0  0  0  0  0  0  0  0  0  0
    7.8234   -5.3405    0.0000 O   0  0  0  0  0  0  0  0  0  0  0  0
    2.8790   -4.1204    0.0000 C   0  0  0  0  0  0  0  0  0  0  0  0
    2.1726   -5.3405    0.0000 C   0  0  0  0  0  0  0  0  0  0  0  0
    4.9980   -6.2074    0.0000 C   0  0  0  0  0  0  0  0  0  0  0  0
    9.2362   -7.8556    0.0000 C   0  0  0  0  0  0  0  0  0  0  0  0
    9.9425   -7.4275    0.0000 C   0  0  0  0  0  0  0  0  0  0  0  0
    8.5298   -6.6034    0.0000 C   0  0  0  0  0  0  0  0  0  0  0  0
    9.2362   -6.2074    0.0000 C   0  0  0  0  0  0  0  0  0  0  0  0
    8.5298   -4.1204    0.0000 C   0  0  0  0  0  0  0  0  0  0  0  0
    1.4234   -7.4275    0.0000 C   0  0  0  0  0  0  0  0  0  0  0  0
    1.4234   -6.6034    0.0000 C   0  0  0  0  0  0  0  0  0  0  0  0
    1.4234   -4.1204    0.0000 C   0  0  0  0  0  0  0  0  0  0  0  0
    6.4107   -7.8556    0.0000 O   0  0  0  0  0  0  0  0  0  0  0  0
    2.1726   -3.7244    0.0000 C   0  0  0  0  0  0  0  0  0  0  0  0
    1.4234   -4.9552    0.0000 C   0  0  0  0  0  0  0  0  0  0  0  0
    9.2362   -5.3405    0.0000 O   0  0  0  0  0  0  0  0  0  0  0  0
    0.7171   -3.6923    0.0000 Cl  0  0  0  0  0  0  0  0  0  0  0  0
   10.7024   -6.2074    0.0000 C   0  0  0  0  0  0  0  0  0  0  0  0
    7.8234   -7.8556    0.0000 C   0  0  0  0  0  0  0  0  0  0  0  0
   10.7024   -5.3405    0.0000 C   0  0  0  0  0  0  0  0  0  0  0  0
    7.1171   -7.4275    0.0000 C   0  0  0  0  0  0  0  0  0  0  0  0
    0.7171   -7.8556    0.0000 O   0  0  0  0  0  0  0  0  0  0  0  0
    6.4107   -3.7244    0.0000 C   0  0  0  0  0  0  0  0  0  0  0  0
    5.7044   -2.4722    0.0000 C   0  0  0  0  0  0  0  0  0  0  0  0
    9.9425   -4.9552    0.0000 C   0  0  0  0  0  0  0  0  0  0  0  0
    9.2362   -0.4281    0.0000 C   0  0  0  0  0  0  0  0  0  0  0  0
    9.9425   -1.6482    0.0000 C   0  0  0  0  0  0  0  0  0  0  0  0
    0.0000   -7.4703    0.0000 C   0  0  0  0  0  0  0  0  0  0  0  0
    5.7044   -1.6482    0.0000 C   0  0  0  0  0  0  0  0  0  0  0  0
    5.7044   -4.1204    0.0000 C   0  0  0  0  0  0  0  0  0  0  0  0
    5.7044   -4.9552    0.0000 C   0  0  0  0  0  0  0  0  0  0  0  0
    4.9980   -1.2522    0.0000 C   0  0  0  0  0  0  0  0  0  0  0  0
   10.7024   -1.2522    0.0000 C   0  0  0  0  0  0  0  0  0  0  0  0
    9.9425    0.0000    0.0000 C   0  0  0  0  0  0  0  0  0  0  0  0
   10.7024   -0.4281    0.0000 C   0  0  0  0  0  0  0  0  0  0  0  0
  1  2  1  0
  1  4  1  0
  1  6  1  0
  2  3  2  0
  2 29  1  0
  3 11  1  0
  3  5  1  0
  4  5  2  0
  4 12  1  0
  5 17  1  0
  6 15  1  0
  6 20  2  0
  7 10  1  0
  7 18  1  0
  7 21  2  0
  8  9  1  0
  8 22  2  0
  8 23  1  0
  9 10  1  0
 10 24  1  0
 11 16  1  0
 12 36  2  0
 13 33  1  0
 13 43  1  0
 13 31  1  0
 14 44  1  0
 14 30  1  0
 14 32  1  0
 15 27  2  0
 15 28  1  0
 16 25  2  0
 16 38  1  0
 17 35  2  0
 18 48  1  0
 18 49  1  0
 19 41  1  0
 19 26  2  0
 19 34  1  0
 23 51  2  0
 23 52  1  0
 24 34  1  0
 27 39  1  0
 28 40  2  0
 30 31  1  0
 32 33  1  0
 35 36  1  0
 35 47  1  0
 37 40  1  0
 37 42  1  0
 37 39  2  0
 38 46  1  0
 41 50  1  0
 43 45  1  0
 44 46  1  0
 45 50  1  0
 47 53  1  0
 48 55  1  0
 49 54  1  0
 51 59  1  0
 52 58  2  0
 54 57  1  0
 55 56  1  0
 58 60  1  0
 59 60  2  0
M  END
>  <Formula>  (216) 
C46H58ClN5O8

>  <FW>  (216) 
844.4344

>  <DSSTox_CID>  (216) 
28768

>  <NR-AR>  (216) 
0

>  <NR-ER>  (216) 
1

>  <NR-ER-LBD>  (216) 
1

>  <NR-AhR>  (216) 
1

>  <SR-ATAD5>  (216) 
0

>  <SR-p53>  (216) 
0

$$$$
NCGC00254129-01
     RDKit          2D

 45 49  0  0  0  0  0  0  0  0999 V2000
    0.3323   -6.9206    0.0000 C   0  0  0  0  0  0  0  0  0  0  0  0
    0.5843   -7.6997    0.0000 C   0  0  0  0  0  0  0  0  0  0  0  0
    1.3979   -7.8716    0.0000 C   0  0  0  0  0  0  0  0  0  0  0  0
    1.9364   -7.2529    0.0000 C   0  0  0  0  0  0  0  0  0  0  0  0
    2.7499   -7.4247    0.0000 C   0  0  0  0  0  0  0  0  0  0  0  0
    3.2999   -6.8060    0.0000 S   0  0  0  0  0  0  0  0  0  0  0  0
    3.0478   -6.0268    0.0000 C   0  0  0  0  0  0  0  0  0  0  0  0
    3.5978   -5.4081    0.0000 C   0  0  0  0  0  0  0  0  0  0  0  0
    3.3343   -4.6176    0.0000 S   0  0  0  0  0  0  0  0  0  0  0  0
    4.0103   -4.1363    0.0000 C   0  0  0  0  0  0  0  0  0  0  0  0
    4.6748   -4.6176    0.0000 N   0  0  0  0  0  0  0  0  0  0  0  0
    4.4228   -5.4081    0.0000 C   0  0  0  0  0  0  0  0  0  0  0  0
    4.8353   -6.1185    0.0000 C   0  0  0  0  0  0  0  0  0  0  0  0
    5.6488   -6.1185    0.0000 N   0  0  0  0  0  0  0  0  0  0  0  0
    6.0727   -5.4081    0.0000 C   0  0  0  0  0  0  0  0  0  0  0  0
    6.8976   -5.4081    0.0000 C   0  0  0  0  0  0  0  0  0  0  0  0
    7.3101   -6.1185    0.0000 N   0  0  0  0  0  0  0  0  0  0  0  0
    6.8976   -6.8404    0.0000 C   0  0  0  0  0  0  0  0  0  0  0  0
    6.0727   -6.8404    0.0000 C   0  0  0  0  0  0  0  0  0  0  0  0
    8.1351   -6.1185    0.0000 C   0  0  0  0  0  0  0  0  0  0  0  0
    8.5476   -5.4081    0.0000 C   0  0  0  0  0  0  0  0  0  0  0  0
    9.3726   -5.4081    0.0000 C   0  0  0  0  0  0  0  0  0  0  0  0
    9.7851   -6.1185    0.0000 C   0  0  0  0  0  0  0  0  0  0  0  0
   10.6100   -6.1185    0.0000 O   0  0  0  0  0  0  0  0  0  0  0  0
   11.0225   -5.4081    0.0000 C   0  0  0  0  0  0  0  0  0  0  0  0
    9.3726   -6.8404    0.0000 C   0  0  0  0  0  0  0  0  0  0  0  0
    8.5476   -6.8404    0.0000 C   0  0  0  0  0  0  0  0  0  0  0  0
    4.0103   -3.2999    0.0000 C   0  0  0  0  0  0  0  0  0  0  0  0
    4.7206   -2.8989    0.0000 C   0  0  0  0  0  0  0  0  0  0  0  0
    4.7206   -2.0739    0.0000 C   0  0  0  0  0  0  0  0  0  0  0  0
    4.0103   -1.6499    0.0000 C   0  0  0  0  0  0  0  0  0  0  0  0
    3.2999   -2.0739    0.0000 C   0  0  0  0  0  0  0  0  0  0  0  0
    3.2999   -2.8989    0.0000 C   0  0  0  0  0  0  0  0  0  0  0  0
    4.0103   -0.8249    0.0000 C   0  0  0  0  0  0  0  0  0  0  0  0
    3.1853   -0.8249    0.0000 F   0  0  0  0  0  0  0  0  0  0  0  0
    4.8353   -0.8249    0.0000 F   0  0  0  0  0  0  0  0  0  0  0  0
    4.0103    0.0000    0.0000 F   0  0  0  0  0  0  0  0  0  0  0  0
    3.0020   -8.2038    0.0000 C   0  0  0  0  0  0  0  0  0  0  0  0
    2.4635   -8.8226    0.0000 C   0  0  0  0  0  0  0  0  0  0  0  0
    1.6499   -8.6507    0.0000 C   0  0  0  0  0  0  0  0  0  0  0  0
    1.1000   -9.2694    0.0000 O   0  0  0  0  0  0  0  0  0  0  0  0
    1.3635  -10.0486    0.0000 C   0  0  0  0  0  0  0  0  0  0  0  0
    0.8020  -10.6673    0.0000 C   0  0  0  0  0  0  0  0  0  0  0  0
    0.0000  -10.5069    0.0000 O   0  0  0  0  0  0  0  0  0  0  0  0
    1.0656  -11.4579    0.0000 O   0  0  0  0  0  0  0  0  0  0  0  0
  1  2  1  0
  2  3  1  0
  3  4  2  0
  3 40  1  0
  4  5  1  0
  5  6  1  0
  5 38  2  0
  6  7  1  0
  7  8  1  0
  8  9  1  0
  8 12  2  0
  9 10  1  0
 10 11  2  0
 10 28  1  0
 11 12  1  0
 12 13  1  0
 13 14  1  0
 14 15  1  0
 14 19  1  0
 15 16  1  0
 16 17  1  0
 17 18  1  0
 17 20  1  0
 18 19  1  0
 20 21  2  0
 20 27  1  0
 21 22  1  0
 22 23  2  0
 23 24  1  0
 23 26  1  0
 24 25  1  0
 26 27  2  0
 28 29  2  0
 28 33  1  0
 29 30  1  0
 30 31  2  0
 31 32  1  0
 31 34  1  0
 32 33  2  0
 34 35  1  0
 34 36  1  0
 34 37  1  0
 38 39  1  0
 39 40  2  0
 40 41  1  0
 41 42  1  0
 42 43  1  0
 43 44  2  0
 43 45  1  0
M  END
>  <Formula>  (217) 
C33H34F3N3O4S2

>  <FW>  (217) 
657.7660

>  <DSSTox_CID>  (217) 
27315

>  <NR-AR>  (217) 
0

>  <NR-AR-LBD>  (217) 
0

>  <NR-ER-LBD>  (217) 
1

>  <NR-PPAR-gamma>  (217) 
1

>  <NR-AhR>  (217) 
0

>  <SR-MMP>  (217) 
1

$$$$
NCGC00163543-01
     RDKit          2D

 40 43  0  0  1  0  0  0  0  0999 V2000
    2.0995   -6.7060    0.0000 O   0  0  0  0  0  0  0  0  0  0  0  0
    2.3816   -5.9304    0.0000 C   0  0  0  0  0  0  0  0  0  0  0  0
    1.8567   -5.3115    0.0000 C   0  0  0  0  0  0  0  0  0  0  0  0
    1.0420   -5.4447    0.0000 O   0  0  0  0  0  0  0  0  0  0  0  0
    2.1387   -4.5281    0.0000 C   0  0  0  0  0  0  0  0  0  0  0  0
    1.3318   -4.3871    0.0000 O   0  0  0  0  0  0  0  0  0  0  0  0
    2.1387   -3.6977    0.0000 C   0  0  0  0  0  0  0  0  0  0  0  0
    2.8594   -3.2982    0.0000 C   0  0  0  0  0  0  0  0  0  0  0  0
    2.8594   -2.4677    0.0000 O   0  0  0  0  0  0  0  0  0  0  0  0
    2.1387   -2.0525    0.0000 C   0  0  0  0  0  0  0  0  0  0  0  0
    1.4258   -2.4677    0.0000 C   0  0  0  0  0  0  0  0  0  0  0  0
    0.7129   -2.0525    0.0000 C   0  0  0  0  0  0  0  0  0  0  0  0
    0.0000   -2.4677    0.0000 N   0  0  0  0  0  0  0  0  0  0  0  0
    0.7129   -1.2300    0.0000 C   0  0  0  0  0  0  0  0  0  0  0  0
    0.0000   -0.8226    0.0000 O   0  0  0  0  0  0  0  0  0  0  0  0
    1.4258   -0.8226    0.0000 C   0  0  0  0  0  0  0  0  0  0  0  0
    1.4258    0.0000    0.0000 C   0  0  0  0  0  0  0  0  0  0  0  0
    2.1387   -1.2300    0.0000 O   0  0  0  0  0  0  0  0  0  0  0  0
    3.5724   -3.6977    0.0000 C   0  0  0  0  0  0  0  0  0  0  0  0
    4.2774   -3.2982    0.0000 C   0  0  0  0  0  0  0  0  0  0  0  0
    4.2774   -2.4677    0.0000 O   0  0  0  0  0  0  0  0  0  0  0  0
    4.9903   -3.6977    0.0000 C   0  0  0  0  0  0  0  0  0  0  0  0
    5.7032   -3.2982    0.0000 C   0  0  0  0  0  0  0  0  0  0  0  0
    5.7032   -2.4677    0.0000 O   0  0  0  0  0  0  0  0  0  0  0  0
    6.4161   -3.6977    0.0000 C   0  0  0  0  0  0  0  0  0  0  0  0
    7.1291   -3.2982    0.0000 C   0  0  0  0  0  0  0  0  0  0  0  0
    7.1291   -2.4677    0.0000 O   0  0  0  0  0  0  0  0  0  0  0  0
    7.8341   -2.0525    0.0000 C   0  0  0  0  0  0  0  0  0  0  0  0
    7.8341   -3.6977    0.0000 C   0  0  0  0  0  0  0  0  0  0  0  0
    7.8341   -4.5281    0.0000 C   0  0  0  0  0  0  0  0  0  0  0  0
    7.1291   -4.9433    0.0000 C   0  0  0  0  0  0  0  0  0  0  0  0
    6.4161   -4.5281    0.0000 C   0  0  0  0  0  0  0  0  0  0  0  0
    5.7032   -4.9433    0.0000 C   0  0  0  0  0  0  0  0  0  0  0  0
    5.7032   -5.7659    0.0000 O   0  0  0  0  0  0  0  0  0  0  0  0
    4.9903   -4.5281    0.0000 C   0  0  0  0  0  0  0  0  0  0  0  0
    4.2774   -4.9433    0.0000 C   0  0  0  0  0  0  0  0  0  0  0  0
    4.2774   -5.7659    0.0000 O   0  0  0  0  0  0  0  0  0  0  0  0
    3.5724   -4.5281    0.0000 C   0  0  0  0  0  0  0  0  0  0  0  0
    2.8594   -4.9433    0.0000 C   0  0  0  0  0  0  0  0  0  0  0  0
    5.9696   -0.3682    0.0000 Cl  0  0  0  0  0  0  0  0  0  0  0  0
  1  2  1  0
  2  3  1  0
  3  4  2  0
  5  3  1  0
  5  6  1  6
  5  7  1  0
  5 39  1  0
  7  8  1  0
  8  9  1  6
  8 19  1  0
 10  9  1  1
 10 11  1  0
 10 18  1  0
 11 12  1  0
 12 13  1  6
 12 14  1  0
 14 15  1  6
 14 16  1  0
 16 17  1  6
 16 18  1  0
 19 20  1  0
 19 38  2  0
 20 21  1  0
 20 22  2  0
 22 23  1  0
 22 35  1  0
 23 24  2  0
 23 25  1  0
 25 26  2  0
 25 32  1  0
 26 27  1  0
 26 29  1  0
 27 28  1  0
 29 30  2  0
 30 31  1  0
 31 32  2  0
 32 33  1  0
 33 34  2  0
 33 35  1  0
 35 36  2  0
 36 37  1  0
 36 38  1  0
 38 39  1  0
M  END
>  <Formula>  (218) 
C27H30ClNO11

>  <FW>  (218) 
579.9802 (543.5193+36.4609)

>  <DSSTox_CID>  (218) 
10636

>  <NR-AR>  (218) 
0

>  <NR-AR-LBD>  (218) 
1

>  <NR-ER-LBD>  (218) 
1

>  <SR-ATAD5>  (218) 
1

>  <SR-p53>  (218) 
1

$$$$
NCGC00258711-01
     RDKit          2D

 39 42  0  0  1  0  0  0  0  0999 V2000
    5.0456   -5.0061    0.0000 C   0  0  0  0  0  0  0  0  0  0  0  0
    5.0456   -4.1678    0.0000 C   0  0  0  0  0  0  0  0  0  0  0  0
    5.7653   -3.7644    0.0000 C   0  0  0  0  0  0  0  0  0  0  0  0
    5.7653   -5.4094    0.0000 C   0  0  0  0  0  0  0  0  0  0  0  0
    3.6458   -4.1678    0.0000 C   0  0  0  0  0  0  0  0  0  0  0  0
    3.6458   -5.0061    0.0000 C   0  0  0  0  0  0  0  0  0  0  0  0
    6.4771   -4.1678    0.0000 C   0  0  0  0  0  0  0  0  0  0  0  0
    4.3418   -5.4094    0.0000 C   0  0  0  0  0  0  0  0  0  0  0  0
    4.3418   -3.7644    0.0000 C   0  0  0  0  0  0  0  0  0  0  0  0
    6.4771   -5.0061    0.0000 C   0  0  0  0  0  0  0  0  0  0  0  0
    2.2144   -5.0061    0.0000 C   0  0  0  0  0  0  0  0  0  0  0  0
    2.9262   -3.7644    0.0000 C   0  0  0  0  0  0  0  0  0  0  0  0
    2.9262   -5.4094    0.0000 C   0  0  0  0  0  0  0  0  0  0  0  0
    2.2144   -4.1678    0.0000 C   0  0  0  0  0  0  0  0  0  0  0  0
    2.9262   -2.5307    0.0000 O   0  0  0  0  0  0  0  0  0  0  0  0
    1.4789   -5.4252    0.0000 C   0  0  0  0  0  0  0  0  0  0  0  0
    5.7653   -6.2398    0.0000 O   0  0  0  0  0  0  0  0  0  0  0  0
    5.7653   -2.9420    0.0000 O   0  0  0  0  0  0  0  0  0  0  0  0
    7.1967   -3.7644    0.0000 C   0  0  0  0  0  0  0  0  0  0  0  0
    0.7592   -5.0061    0.0000 O   0  0  0  0  0  0  0  0  0  0  0  0
    4.3418   -6.2398    0.0000 O   0  0  0  0  0  0  0  0  0  0  0  0
    4.3418   -2.9420    0.0000 O   0  0  0  0  0  0  0  0  0  0  0  0
    1.3523   -4.4209    0.0000 O   0  0  0  0  0  0  0  0  0  0  0  0
    7.1967   -5.4094    0.0000 C   0  0  0  0  0  0  0  0  0  0  0  0
    7.1967   -2.9420    0.0000 O   0  0  0  0  0  0  0  0  0  0  0  0
    7.8768   -5.0061    0.0000 C   0  0  0  0  0  0  0  0  0  0  0  0
    7.8768   -4.1678    0.0000 C   0  0  0  0  0  0  0  0  0  0  0  0
    1.4789   -6.2636    0.0000 C   0  0  0  0  0  0  0  0  0  0  0  0
    7.9085   -2.5307    0.0000 C   0  0  0  0  0  0  0  0  0  0  0  0
    2.1986   -2.0958    0.0000 C   0  0  0  0  0  0  0  0  0  0  0  0
    1.4631   -2.5307    0.0000 C   0  0  0  0  0  0  0  0  0  0  0  0
    2.1986   -1.2575    0.0000 O   0  0  0  0  0  0  0  0  0  0  0  0
    0.7434   -2.0958    0.0000 C   0  0  0  0  0  0  0  0  0  0  0  0
    1.4631   -0.8383    0.0000 C   0  0  0  0  0  0  0  0  0  0  0  0
    0.7434   -1.2575    0.0000 C   0  0  0  0  0  0  0  0  0  0  0  0
    0.0000   -2.5307    0.0000 N   0  0  0  0  0  0  0  0  0  0  0  0
    0.0000   -0.8383    0.0000 O   0  0  0  0  0  0  0  0  0  0  0  0
    1.4631    0.0000    0.0000 C   0  0  0  0  0  0  0  0  0  0  0  0
    3.2030   -6.2636    0.0000 Cl  0  0  0  0  0  0  0  0  0  0  0  0
  1  2  2  0
  1  4  1  0
  1  8  1  0
  2  3  1  0
  2  9  1  0
  3 18  2  0
  3  7  1  0
  4 10  1  0
  4 17  2  0
  5  6  1  0
  5 12  1  0
  5  9  2  0
  6  8  2  0
  6 13  1  0
  7 10  2  0
  7 19  1  0
  8 21  1  0
  9 22  1  0
 10 24  1  0
 11 13  1  0
 11 14  1  0
 11 16  1  0
 11 23  1  6
 12 15  1  6
 12 14  1  0
 30 15  1  1
 16 20  2  0
 16 28  1  0
 19 25  1  0
 19 27  2  0
 24 26  2  0
 25 29  1  0
 26 27  1  0
 30 31  1  0
 30 32  1  0
 31 33  1  0
 32 34  1  0
 33 35  1  0
 33 36  1  6
 34 35  1  0
 34 38  1  6
 35 37  1  6
M  END
>  <Formula>  (219) 
C27H30ClNO10

>  <FW>  (219) 
563.9808 (527.5199+36.4609)

>  <DSSTox_CID>  (219) 
13382

>  <NR-Aromatase>  (219) 
1

>  <NR-AR>  (219) 
0

>  <NR-AR-LBD>  (219) 
1

>  <NR-ER-LBD>  (219) 
1

>  <SR-ATAD5>  (219) 
1

>  <SR-p53>  (219) 
1

$$$$
NCGC00255075-01
     RDKit          2D

 29 30  0  0  0  0  0  0  0  0999 V2000
    2.8538   -2.3591    0.0000 N   0  0  0  0  0  0  0  0  0  0  0  0
    2.1385   -2.7777    0.0000 C   0  0  0  0  0  0  0  0  0  0  0  0
    2.8538   -1.5449    0.0000 C   0  0  0  0  0  0  0  0  0  0  0  0
    2.1385   -1.1339    0.0000 C   0  0  0  0  0  0  0  0  0  0  0  0
    1.4231   -2.3591    0.0000 C   0  0  0  0  0  0  0  0  0  0  0  0
    1.4231   -1.5449    0.0000 C   0  0  0  0  0  0  0  0  0  0  0  0
    3.5539   -1.1339    0.0000 N   0  0  0  0  0  0  0  0  0  0  0  0
    2.1385   -0.3120    0.0000 Cl  0  0  0  0  0  0  0  0  0  0  0  0
    4.7564   -1.6438    0.0000 C   0  0  0  0  0  0  0  0  0  0  0  0
    5.4717   -1.2328    0.0000 C   0  0  0  0  0  0  0  0  0  0  0  0
    4.7564   -2.4581    0.0000 C   0  0  0  0  0  0  0  0  0  0  0  0
    6.1871   -1.6438    0.0000 C   0  0  0  0  0  0  0  0  0  0  0  0
    5.4717   -2.8767    0.0000 C   0  0  0  0  0  0  0  0  0  0  0  0
    6.1871   -2.4581    0.0000 C   0  0  0  0  0  0  0  0  0  0  0  0
    6.8948   -1.2328    0.0000 Cl  0  0  0  0  0  0  0  0  0  0  0  0
    5.4717   -0.4110    0.0000 N   0  0  0  0  0  0  0  0  0  0  0  0
    4.7564    0.0000    0.0000 O   0  0  0  0  0  0  0  0  0  0  0  0
    6.1871    0.0000    0.0000 O   0  0  0  0  0  0  0  0  0  0  0  0
    4.0486   -2.8767    0.0000 N   0  0  0  0  0  0  0  0  0  0  0  0
    4.0486   -3.6985    0.0000 O   0  0  0  0  0  0  0  0  0  0  0  0
    3.3941   -2.4505    0.0000 O   0  0  0  0  0  0  0  0  0  0  0  0
    6.8948   -2.8767    0.0000 C   0  0  0  0  0  0  0  0  0  0  0  0
    6.4839   -3.5920    0.0000 F   0  0  0  0  0  0  0  0  0  0  0  0
    7.3058   -2.1613    0.0000 F   0  0  0  0  0  0  0  0  0  0  0  0
    7.6102   -3.2800    0.0000 F   0  0  0  0  0  0  0  0  0  0  0  0
    0.7154   -2.7777    0.0000 C   0  0  0  0  0  0  0  0  0  0  0  0
    0.2968   -2.0624    0.0000 F   0  0  0  0  0  0  0  0  0  0  0  0
    1.1187   -3.4931    0.0000 F   0  0  0  0  0  0  0  0  0  0  0  0
    0.0000   -3.1811    0.0000 F   0  0  0  0  0  0  0  0  0  0  0  0
  1  2  2  0
  1  3  1  0
  2  5  1  0
  3  4  2  0
  3  7  1  0
  4  6  1  0
  4  8  1  0
  5  6  2  0
  5 26  1  0
  7  9  1  0
  9 10  2  0
  9 11  1  0
 10 12  1  0
 10 16  1  0
 11 13  2  0
 11 19  1  0
 12 14  2  0
 12 15  1  0
 13 14  1  0
 14 22  1  0
 16 17  1  0
 16 18  2  0
 19 20  1  0
 19 21  2  0
 22 23  1  0
 22 24  1  0
 22 25  1  0
 26 27  1  0
 26 28  1  0
 26 29  1  0
M  CHG  4  16   1  17  -1  19   1  20  -1
M  END
>  <Formula>  (220) 
C13H4Cl2F6N4O4

>  <FW>  (220) 
465.0917

>  <DSSTox_CID>  (220) 
12551

>  <NR-Aromatase>  (220) 
1

>  <NR-AR>  (220) 
0

>  <NR-ER-LBD>  (220) 
1

>  <NR-PPAR-gamma>  (220) 
1

>  <NR-AhR>  (220) 
1

>  <SR-ATAD5>  (220) 
0

>  <SR-HSE>  (220) 
1

>  <SR-p53>  (220) 
1

$$$$
NCGC00159344-02
     RDKit          2D

 37 41  0  0  1  0  0  0  0  0999 V2000
    2.8520   -1.2375    0.0000 C   0  0  0  0  0  0  0  0  0  0  0  0
    2.8520   -2.0697    0.0000 C   0  0  0  0  0  0  0  0  0  0  0  0
    2.1336   -2.4750    0.0000 C   0  0  0  0  0  0  0  0  0  0  0  0
    2.1336   -0.8250    0.0000 C   0  0  0  0  0  0  0  0  0  0  0  0
    4.2602   -2.0697    0.0000 C   0  0  0  0  0  0  0  0  0  0  0  0
    4.2602   -1.2375    0.0000 C   0  0  0  0  0  0  0  0  0  0  0  0
    1.4224   -2.0697    0.0000 C   0  0  0  0  0  0  0  0  0  0  0  0
    3.5561   -0.8250    0.0000 C   0  0  0  0  0  0  0  0  0  0  0  0
    3.5561   -2.4750    0.0000 C   0  0  0  0  0  0  0  0  0  0  0  0
    1.4224   -1.2375    0.0000 C   0  0  0  0  0  0  0  0  0  0  0  0
    5.6897   -1.2375    0.0000 C   0  0  0  0  0  0  0  0  0  0  0  0
    4.9643   -2.4750    0.0000 C   0  0  0  0  0  0  0  0  0  0  0  0
    4.9643   -0.8250    0.0000 C   0  0  0  0  0  0  0  0  0  0  0  0
    5.6897   -2.0697    0.0000 C   0  0  0  0  0  0  0  0  0  0  0  0
    4.9643   -3.7766    0.0000 O   0  0  0  0  0  0  0  0  0  0  0  0
    6.4081   -0.8250    0.0000 C   0  0  0  0  0  0  0  0  0  0  0  0
    2.1336    0.0000    0.0000 O   0  0  0  0  0  0  0  0  0  0  0  0
    2.1336   -3.2929    0.0000 O   0  0  0  0  0  0  0  0  0  0  0  0
    0.7183   -2.4750    0.0000 C   0  0  0  0  0  0  0  0  0  0  0  0
    7.1121   -1.2375    0.0000 O   0  0  0  0  0  0  0  0  0  0  0  0
    3.5561    0.0000    0.0000 O   0  0  0  0  0  0  0  0  0  0  0  0
    3.5561   -3.2929    0.0000 O   0  0  0  0  0  0  0  0  0  0  0  0
    6.5077   -1.7780    0.0000 O   0  0  0  0  0  0  0  0  0  0  0  0
    0.7183   -0.8250    0.0000 C   0  0  0  0  0  0  0  0  0  0  0  0
    0.7183   -3.2929    0.0000 O   0  0  0  0  0  0  0  0  0  0  0  0
    0.0000   -1.2375    0.0000 C   0  0  0  0  0  0  0  0  0  0  0  0
    0.0000   -2.0697    0.0000 C   0  0  0  0  0  0  0  0  0  0  0  0
    6.4081    0.0000    0.0000 C   0  0  0  0  0  0  0  0  0  0  0  0
    4.2602   -4.6016    0.0000 C   0  0  0  0  0  0  0  0  0  0  0  0
    4.2602   -5.4266    0.0000 C   0  0  0  0  0  0  0  0  0  0  0  0
    3.5490   -4.1820    0.0000 O   0  0  0  0  0  0  0  0  0  0  0  0
    3.5490   -5.8533    0.0000 C   0  0  0  0  0  0  0  0  0  0  0  0
    2.8235   -4.6016    0.0000 C   0  0  0  0  0  0  0  0  0  0  0  0
    2.8235   -5.4266    0.0000 C   0  0  0  0  0  0  0  0  0  0  0  0
    3.5490   -6.6783    0.0000 N   0  0  0  0  0  0  0  0  0  0  0  0
    2.1052   -5.8533    0.0000 O   0  0  0  0  0  0  0  0  0  0  0  0
    2.1052   -4.1820    0.0000 C   0  0  0  0  0  0  0  0  0  0  0  0
  1  2  2  0
  1  4  1  0
  1  8  1  0
  2  3  1  0
  2  9  1  0
  3 18  2  0
  3  7  1  0
  4 10  1  0
  4 17  2  0
  5  6  1  0
  5 12  1  0
  5  9  2  0
  6  8  2  0
  6 13  1  0
  7 10  2  0
  7 19  1  0
  8 21  1  0
  9 22  1  0
 10 24  1  0
 11 13  1  0
 11 14  1  0
 11 16  1  0
 11 23  1  6
 12 15  1  6
 12 14  1  0
 29 15  1  1
 16 20  2  0
 16 28  1  0
 19 25  1  0
 19 27  2  0
 24 26  2  0
 26 27  1  0
 29 30  1  0
 29 31  1  0
 30 32  1  0
 31 33  1  0
 32 34  1  0
 32 35  1  6
 33 34  1  0
 33 37  1  6
 34 36  1  6
M  END
>  <Formula>  (221) 
C26H27NO10

>  <FW>  (221) 
513.4933

>  <DSSTox_CID>  (221) 
2742

>  <NR-Aromatase>  (221) 
1

>  <NR-AR>  (221) 
0

>  <NR-AR-LBD>  (221) 
1

>  <NR-ER-LBD>  (221) 
1

>  <SR-ATAD5>  (221) 
1

>  <SR-MMP>  (221) 
1

>  <SR-p53>  (221) 
1

$$$$
NCGC00160675-01
     RDKit          2D

 37 41  0  0  1  0  0  0  0  0999 V2000
    2.8520   -1.2375    0.0000 C   0  0  0  0  0  0  0  0  0  0  0  0
    2.8520   -2.0697    0.0000 C   0  0  0  0  0  0  0  0  0  0  0  0
    2.1336   -2.4750    0.0000 C   0  0  0  0  0  0  0  0  0  0  0  0
    2.1336   -0.8250    0.0000 C   0  0  0  0  0  0  0  0  0  0  0  0
    4.2602   -2.0697    0.0000 C   0  0  0  0  0  0  0  0  0  0  0  0
    4.2602   -1.2375    0.0000 C   0  0  0  0  0  0  0  0  0  0  0  0
    1.4224   -2.0697    0.0000 C   0  0  0  0  0  0  0  0  0  0  0  0
    3.5561   -0.8250    0.0000 C   0  0  0  0  0  0  0  0  0  0  0  0
    3.5561   -2.4750    0.0000 C   0  0  0  0  0  0  0  0  0  0  0  0
    1.4224   -1.2375    0.0000 C   0  0  0  0  0  0  0  0  0  0  0  0
    5.6897   -1.2375    0.0000 C   0  0  0  0  0  0  0  0  0  0  0  0
    4.9643   -2.4750    0.0000 C   0  0  0  0  0  0  0  0  0  0  0  0
    4.9643   -0.8250    0.0000 C   0  0  0  0  0  0  0  0  0  0  0  0
    5.6897   -2.0697    0.0000 C   0  0  0  0  0  0  0  0  0  0  0  0
    4.9643   -3.7766    0.0000 O   0  0  0  0  0  0  0  0  0  0  0  0
    6.4081   -0.8250    0.0000 C   0  0  0  0  0  0  0  0  0  0  0  0
    2.1336    0.0000    0.0000 O   0  0  0  0  0  0  0  0  0  0  0  0
    2.1336   -3.2929    0.0000 O   0  0  0  0  0  0  0  0  0  0  0  0
    0.7183   -2.4750    0.0000 C   0  0  0  0  0  0  0  0  0  0  0  0
    7.1121   -1.2375    0.0000 O   0  0  0  0  0  0  0  0  0  0  0  0
    3.5561    0.0000    0.0000 O   0  0  0  0  0  0  0  0  0  0  0  0
    3.5561   -3.2929    0.0000 O   0  0  0  0  0  0  0  0  0  0  0  0
    6.5077   -1.7780    0.0000 O   0  0  0  0  0  0  0  0  0  0  0  0
    0.7183   -0.8250    0.0000 C   0  0  0  0  0  0  0  0  0  0  0  0
    0.7183   -3.2929    0.0000 O   0  0  0  0  0  0  0  0  0  0  0  0
    0.0000   -1.2375    0.0000 C   0  0  0  0  0  0  0  0  0  0  0  0
    0.0000   -2.0697    0.0000 C   0  0  0  0  0  0  0  0  0  0  0  0
    6.4081    0.0000    0.0000 C   0  0  0  0  0  0  0  0  0  0  0  0
    4.2602   -4.6016    0.0000 C   0  0  0  0  0  0  0  0  0  0  0  0
    4.2602   -5.4266    0.0000 C   0  0  0  0  0  0  0  0  0  0  0  0
    3.5490   -4.1820    0.0000 O   0  0  0  0  0  0  0  0  0  0  0  0
    3.5490   -5.8533    0.0000 C   0  0  0  0  0  0  0  0  0  0  0  0
    2.8235   -4.6016    0.0000 C   0  0  0  0  0  0  0  0  0  0  0  0
    2.8235   -5.4266    0.0000 C   0  0  0  0  0  0  0  0  0  0  0  0
    3.5490   -6.6783    0.0000 N   0  0  0  0  0  0  0  0  0  0  0  0
    2.1052   -5.8533    0.0000 O   0  0  0  0  0  0  0  0  0  0  0  0
    2.1052   -4.1820    0.0000 C   0  0  0  0  0  0  0  0  0  0  0  0
  1  2  2  0
  1  4  1  0
  1  8  1  0
  2  3  1  0
  2  9  1  0
  3 18  2  0
  3  7  1  0
  4 10  1  0
  4 17  2  0
  5  6  1  0
  5 12  1  0
  5  9  2  0
  6  8  2  0
  6 13  1  0
  7 10  2  0
  7 19  1  0
  8 21  1  0
  9 22  1  0
 10 24  1  0
 11 13  1  0
 11 14  1  0
 11 16  1  0
 11 23  1  6
 12 15  1  6
 12 14  1  0
 29 15  1  1
 16 20  2  0
 16 28  1  0
 19 25  1  0
 19 27  2  0
 24 26  2  0
 26 27  1  0
 29 30  1  0
 29 31  1  0
 30 32  1  0
 31 33  1  0
 32 34  1  0
 32 35  1  6
 33 34  1  0
 33 37  1  6
 34 36  1  6
M  END
>  <Formula>  (222) 
C26H27NO10

>  <FW>  (222) 
513.4933

>  <DSSTox_CID>  (222) 
2742

>  <NR-Aromatase>  (222) 
1

>  <NR-AR>  (222) 
0

>  <NR-AR-LBD>  (222) 
1

>  <NR-ER-LBD>  (222) 
1

>  <SR-ATAD5>  (222) 
1

>  <SR-MMP>  (222) 
1

>  <SR-p53>  (222) 
1

$$$$
NCGC00093976-03
     RDKit          2D

 37 40  0  0  1  0  0  0  0  0999 V2000
    7.8574   -1.4301    0.0000 C   0  0  0  0  0  0  0  0  0  0  0  0
    7.8574   -2.2551    0.0000 C   0  0  0  0  0  0  0  0  0  0  0  0
    7.1503   -1.0136    0.0000 C   0  0  0  0  0  0  0  0  0  0  0  0
    7.1503   -2.6637    0.0000 C   0  0  0  0  0  0  0  0  0  0  0  0
    6.4274   -1.4301    0.0000 C   0  0  0  0  0  0  0  0  0  0  0  0
    6.4274   -2.2551    0.0000 C   0  0  0  0  0  0  0  0  0  0  0  0
    5.7202   -1.0136    0.0000 C   0  0  0  0  0  0  0  0  0  0  0  0
    5.0052   -1.4301    0.0000 C   0  0  0  0  0  0  0  0  0  0  0  0
    5.7202   -2.6637    0.0000 C   0  0  0  0  0  0  0  0  0  0  0  0
    5.0052   -2.2551    0.0000 C   0  0  0  0  0  0  0  0  0  0  0  0
    4.2902   -1.0136    0.0000 C   0  0  0  0  0  0  0  0  0  0  0  0
    3.5673   -1.4301    0.0000 C   0  0  0  0  0  0  0  0  0  0  0  0
    4.2902   -2.6637    0.0000 C   0  0  0  0  0  0  0  0  0  0  0  0
    3.5673   -2.2551    0.0000 C   0  0  0  0  0  0  0  0  0  0  0  0
    5.7202   -0.1886    0.0000 O   0  0  0  0  0  0  0  0  0  0  0  0
    5.7202   -3.4887    0.0000 O   0  0  0  0  0  0  0  0  0  0  0  0
    4.2902   -0.1886    0.0000 O   0  0  0  0  0  0  0  0  0  0  0  0
    4.2902   -3.4887    0.0000 O   0  0  0  0  0  0  0  0  0  0  0  0
    2.8522   -1.0136    0.0000 C   0  0  0  0  0  0  0  0  0  0  0  0
    2.1372   -1.4301    0.0000 C   0  0  0  0  0  0  0  0  0  0  0  0
    2.8522   -2.6637    0.0000 C   0  0  0  0  0  0  0  0  0  0  0  0
    2.1372   -2.2551    0.0000 C   0  0  0  0  0  0  0  0  0  0  0  0
    2.8522   -3.4887    0.0000 O   0  0  0  0  0  0  0  0  0  0  0  0
    1.7286   -0.6993    0.0000 C   0  0  0  0  0  0  0  0  0  0  0  0
    0.9036   -0.6993    0.0000 O   0  0  0  0  0  0  0  0  0  0  0  0
    2.1372    0.0000    0.0000 C   0  0  0  0  0  0  0  0  0  0  0  0
    1.3122   -1.4301    0.0000 O   0  0  0  0  0  0  0  0  0  0  0  0
    2.1372   -3.9051    0.0000 C   0  0  0  0  0  0  0  0  0  0  0  0
    2.1372   -4.7302    0.0000 C   0  0  0  0  0  0  0  0  0  0  0  0
    1.4301   -3.4887    0.0000 O   0  0  0  0  0  0  0  0  0  0  0  0
    1.4301   -5.1387    0.0000 C   0  0  0  0  0  0  0  0  0  0  0  0
    0.7072   -3.9051    0.0000 C   0  0  0  0  0  0  0  0  0  0  0  0
    0.7072   -4.7302    0.0000 C   0  0  0  0  0  0  0  0  0  0  0  0
    0.0000   -3.4887    0.0000 C   0  0  0  0  0  0  0  0  0  0  0  0
    0.0000   -5.1387    0.0000 O   0  0  0  0  0  0  0  0  0  0  0  0
    1.4301   -5.9638    0.0000 N   0  0  0  0  0  0  0  0  0  0  0  0
    3.6615   -4.4395    0.0000 Cl  0  0  0  0  0  0  0  0  0  0  0  0
  1  2  2  0
  1  3  1  0
  2  4  1  0
  3  5  2  0
  4  6  2  0
  5  7  1  0
  5  6  1  0
  6  9  1  0
  7  8  1  0
  7 15  2  0
  8 11  2  0
  8 10  1  0
  9 10  1  0
  9 16  2  0
 10 13  2  0
 11 12  1  0
 11 17  1  0
 12 19  1  0
 12 14  2  0
 13 14  1  0
 13 18  1  0
 14 21  1  0
 19 20  1  0
 20 22  1  0
 20 24  1  0
 20 27  1  1
 21 22  1  0
 21 23  1  1
 28 23  1  1
 24 25  2  0
 24 26  1  0
 28 29  1  0
 28 30  1  0
 29 31  1  0
 30 32  1  0
 31 33  1  0
 31 36  1  6
 32 33  1  0
 32 34  1  6
 33 35  1  6
M  END
>  <Formula>  (223) 
C26H28ClNO9

>  <FW>  (223) 
533.9548 (497.4939+36.4609)

>  <DSSTox_CID>  (223) 
27775

>  <NR-Aromatase>  (223) 
1

>  <NR-AR>  (223) 
0

>  <NR-AR-LBD>  (223) 
1

>  <NR-ER-LBD>  (223) 
1

>  <SR-ATAD5>  (223) 
1

>  <SR-MMP>  (223) 
1

>  <SR-p53>  (223) 
1

$$$$
NCGC00091250-04
     RDKit          2D

 44 49  0  0  1  0  0  0  0  0999 V2000
    3.3797   -1.2931    0.0000 C   0  0  0  0  0  0  0  0  0  0  0  0
    2.7430   -1.6360    0.0000 N   0  0  0  0  0  0  0  0  0  0  0  0
    3.3797   -0.4507    0.0000 C   0  0  0  0  0  0  0  0  0  0  0  0
    4.8002   -3.7618    0.0000 C   0  0  0  0  0  0  0  0  0  0  0  0
    4.8002   -2.9487    0.0000 C   0  0  0  0  0  0  0  0  0  0  0  0
    4.0949   -1.7046    0.0000 C   0  0  0  0  0  0  0  0  0  0  0  0
    4.8002   -1.2931    0.0000 N   0  0  0  0  0  0  0  0  0  0  0  0
    2.0866   -1.2049    0.0000 C   0  0  0  0  0  0  0  0  0  0  0  0
    2.0866   -0.4507    0.0000 C   0  0  0  0  0  0  0  0  0  0  0  0
    5.5056   -2.5274    0.0000 C   0  0  0  0  0  0  0  0  0  0  0  0
    6.2304   -3.7618    0.0000 C   0  0  0  0  0  0  0  0  0  0  0  0
    7.6509   -3.7520    0.0000 C   0  0  0  0  0  0  0  0  0  0  0  0
    4.0949   -2.5274    0.0000 C   0  0  0  0  0  0  0  0  0  0  0  0
    5.5056   -4.1732    0.0000 C   0  0  0  0  0  0  0  0  0  0  0  0
    7.6509   -2.9291    0.0000 C   0  0  0  0  0  0  0  0  0  0  0  0
    7.6509   -1.2736    0.0000 C   0  0  0  0  0  0  0  0  0  0  0  0
    4.0949   -4.1928    0.0000 C   0  0  0  0  0  0  0  0  0  0  0  0
    6.9358   -4.1732    0.0000 O   0  0  0  0  0  0  0  0  0  0  0  0
    5.5056   -1.7046    0.0000 C   0  0  0  0  0  0  0  0  0  0  0  0
    6.9260   -1.6850    0.0000 C   0  0  0  0  0  0  0  0  0  0  0  0
    8.3661   -1.6850    0.0000 C   0  0  0  0  0  0  0  0  0  0  0  0
    6.2304   -2.9487    0.0000 C   0  0  0  0  0  0  0  0  0  0  0  0
    4.0949   -0.0392    0.0000 C   0  0  0  0  0  0  0  0  0  0  0  0
    6.9260   -2.5079    0.0000 C   0  0  0  0  0  0  0  0  0  0  0  0
    8.3661   -2.5079    0.0000 C   0  0  0  0  0  0  0  0  0  0  0  0
    1.3715   -1.6654    0.0000 C   0  0  0  0  0  0  0  0  0  0  0  0
    1.3715    0.0000    0.0000 C   0  0  0  0  0  0  0  0  0  0  0  0
    4.8002   -0.4507    0.0000 C   0  0  0  0  0  0  0  0  0  0  0  0
    8.3661   -4.1635    0.0000 O   0  0  0  0  0  0  0  0  0  0  0  0
    3.3797   -3.7814    0.0000 O   0  0  0  0  0  0  0  0  0  0  0  0
    0.6759   -1.2539    0.0000 C   0  0  0  0  0  0  0  0  0  0  0  0
    7.6509   -0.4408    0.0000 O   0  0  0  0  0  0  0  0  0  0  0  0
    0.6759   -0.4114    0.0000 C   0  0  0  0  0  0  0  0  0  0  0  0
    5.5056   -5.0059    0.0000 O   0  0  0  0  0  0  0  0  0  0  0  0
    4.0949   -5.0059    0.0000 O   0  0  0  0  0  0  0  0  0  0  0  0
    6.2109   -1.2736    0.0000 O   0  0  0  0  0  0  0  0  0  0  0  0
    9.0812   -1.2736    0.0000 O   0  0  0  0  0  0  0  0  0  0  0  0
    0.0000   -1.7241    0.0000 O   0  0  0  0  0  0  0  0  0  0  0  0
    8.3661   -0.0196    0.0000 C   0  0  0  0  0  0  0  0  0  0  0  0
    6.2304   -5.4272    0.0000 C   0  0  0  0  0  0  0  0  0  0  0  0
    6.2109   -0.4408    0.0000 C   0  0  0  0  0  0  0  0  0  0  0  0
    9.7963   -1.6850    0.0000 C   0  0  0  0  0  0  0  0  0  0  0  0
    4.8002   -5.4272    0.0000 C   0  0  0  0  0  0  0  0  0  0  0  0
    0.0000   -2.5667    0.0000 C   0  0  0  0  0  0  0  0  0  0  0  0
  1  2  1  0
  1  3  2  0
  1  6  1  0
  2  8  1  0
  3  9  1  0
  3 23  1  0
  4  5  1  0
  4 14  1  0
  4 17  1  1
  5 13  1  1
  5 10  1  0
  6  7  1  0
  6 13  1  6
  7 19  1  0
  7 28  1  0
  8 26  2  0
  8  9  1  0
  9 27  2  0
 10 22  1  1
 10 19  1  0
 11 22  1  0
 11 18  1  1
 11 14  1  0
 12 18  1  0
 12 15  1  0
 12 29  2  0
 14 34  1  6
 15 24  1  0
 15 25  2  0
 16 21  2  0
 16 32  1  0
 16 20  1  0
 17 30  2  0
 17 35  1  0
 20 24  2  0
 20 36  1  0
 21 25  1  0
 21 37  1  0
 23 28  1  0
 26 31  1  0
 27 33  1  0
 31 38  1  0
 31 33  2  0
 32 39  1  0
 34 40  1  0
 35 43  1  0
 36 41  1  0
 37 42  1  0
 38 44  1  0
M  END
>  <Formula>  (224) 
C33H40N2O9

>  <FW>  (224) 
608.6787

>  <DSSTox_CID>  (224) 
1237

>  <NR-AR>  (224) 
0

>  <NR-AR-LBD>  (224) 
0

>  <NR-ER-LBD>  (224) 
1

>  <NR-AhR>  (224) 
1

>  <SR-ATAD5>  (224) 
0

>  <SR-p53>  (224) 
0

$$$$
NCGC00257389-01
     RDKit          2D

 25 28  0  0  0  0  0  0  0  0999 V2000
    3.7446   -0.2399    0.0000 N   0  0  0  0  0  0  0  0  0  0  0  0
    4.4584   -0.5910    0.0000 C   0  0  0  0  0  0  0  0  0  0  0  0
    4.6281   -1.4042    0.0000 C   0  0  0  0  0  0  0  0  0  0  0  0
    4.1132   -2.0186    0.0000 N   0  0  0  0  0  0  0  0  0  0  0  0
    3.2999   -2.0186    0.0000 C   0  0  0  0  0  0  0  0  0  0  0  0
    2.7909   -1.3633    0.0000 C   0  0  0  0  0  0  0  0  0  0  0  0
    3.0015   -0.5675    0.0000 C   0  0  0  0  0  0  0  0  0  0  0  0
    2.3931    0.0000    0.0000 C   0  0  0  0  0  0  0  0  0  0  0  0
    1.5973   -0.2224    0.0000 C   0  0  0  0  0  0  0  0  0  0  0  0
    1.3925   -1.0181    0.0000 C   0  0  0  0  0  0  0  0  0  0  0  0
    1.9952   -1.5622    0.0000 C   0  0  0  0  0  0  0  0  0  0  0  0
    5.1957   -0.1697    0.0000 N   0  0  0  0  0  0  0  0  0  0  0  0
    5.8334   -0.7548    0.0000 N   0  0  0  0  0  0  0  0  0  0  0  0
    5.4648   -1.5213    0.0000 C   0  0  0  0  0  0  0  0  0  0  0  0
    2.9313   -4.2244    0.0000 C   0  0  0  0  0  0  0  0  0  0  0  0
    2.1063   -4.2244    0.0000 C   0  0  0  0  0  0  0  0  0  0  0  0
    1.6909   -3.5106    0.0000 C   0  0  0  0  0  0  0  0  0  0  0  0
    2.1063   -2.7968    0.0000 C   0  0  0  0  0  0  0  0  0  0  0  0
    2.9313   -2.7968    0.0000 C   0  0  0  0  0  0  0  0  0  0  0  0
    3.3350   -3.5106    0.0000 C   0  0  0  0  0  0  0  0  0  0  0  0
    4.1600   -3.5106    0.0000 Cl  0  0  0  0  0  0  0  0  0  0  0  0
    5.8510   -2.2292    0.0000 C   0  0  0  0  0  0  0  0  0  0  0  0
    0.6085   -1.2521    0.0000 N   0  0  0  0  0  0  0  0  0  0  0  0
    0.0000   -0.6963    0.0000 O   0  0  0  0  0  0  0  0  0  0  0  0
    0.4095   -2.0595    0.0000 O   0  0  0  0  0  0  0  0  0  0  0  0
  1  2  1  0
  1  7  1  0
  2  3  1  0
  2 12  2  0
  3  4  1  0
  3 14  2  0
  4  5  2  0
  5  6  1  0
  5 19  1  0
  6  7  2  0
  6 11  1  0
  7  8  1  0
  8  9  2  0
  9 10  1  0
 10 11  2  0
 10 23  1  0
 12 13  1  0
 13 14  1  0
 14 22  1  0
 15 20  2  0
 15 16  1  0
 16 17  2  0
 17 18  1  0
 18 19  2  0
 19 20  1  0
 20 21  1  0
 23 24  1  0
 23 25  2  0
M  CHG  2  23   1  24  -1
M  END
>  <Formula>  (225) 
C17H12ClN5O2

>  <FW>  (225) 
353.7625

>  <DSSTox_CID>  (225) 
28479

>  <NR-Aromatase>  (225) 
1

>  <NR-AR>  (225) 
0

>  <NR-AR-LBD>  (225) 
0

>  <NR-ER-LBD>  (225) 
1

>  <NR-AhR>  (225) 
1

>  <SR-ARE>  (225) 
1

>  <SR-ATAD5>  (225) 
1

>  <SR-p53>  (225) 
1

$$$$
NCGC00024246-05
     RDKit          2D

 38 42  0  0  1  0  0  0  0  0999 V2000
    2.3886   -5.9401    0.0000 C   0  0  0  0  0  0  0  0  0  0  0  0
    1.8622   -5.3115    0.0000 C   0  0  0  0  0  0  0  0  0  0  0  0
    1.0450   -5.4529    0.0000 O   0  0  0  0  0  0  0  0  0  0  0  0
    2.1450   -4.5336    0.0000 C   0  0  0  0  0  0  0  0  0  0  0  0
    1.3278   -4.3922    0.0000 O   0  0  0  0  0  0  0  0  0  0  0  0
    2.1450   -3.7086    0.0000 C   0  0  0  0  0  0  0  0  0  0  0  0
    2.8600   -3.2922    0.0000 C   0  0  0  0  0  0  0  0  0  0  0  0
    2.8600   -2.4750    0.0000 O   0  0  0  0  0  0  0  0  0  0  0  0
    2.1450   -2.0586    0.0000 C   0  0  0  0  0  0  0  0  0  0  0  0
    1.4300   -2.4750    0.0000 C   0  0  0  0  0  0  0  0  0  0  0  0
    0.7150   -2.0586    0.0000 C   0  0  0  0  0  0  0  0  0  0  0  0
    0.0000   -2.4750    0.0000 N   0  0  0  0  0  0  0  0  0  0  0  0
    0.7150   -1.2336    0.0000 C   0  0  0  0  0  0  0  0  0  0  0  0
    0.0000   -0.8250    0.0000 O   0  0  0  0  0  0  0  0  0  0  0  0
    1.4300   -0.8250    0.0000 C   0  0  0  0  0  0  0  0  0  0  0  0
    1.4300    0.0000    0.0000 C   0  0  0  0  0  0  0  0  0  0  0  0
    2.1450   -1.2336    0.0000 O   0  0  0  0  0  0  0  0  0  0  0  0
    3.5750   -3.7086    0.0000 C   0  0  0  0  0  0  0  0  0  0  0  0
    4.2822   -3.2922    0.0000 C   0  0  0  0  0  0  0  0  0  0  0  0
    4.2822   -2.4750    0.0000 O   0  0  0  0  0  0  0  0  0  0  0  0
    4.9972   -3.7086    0.0000 C   0  0  0  0  0  0  0  0  0  0  0  0
    5.7122   -3.2922    0.0000 C   0  0  0  0  0  0  0  0  0  0  0  0
    5.7122   -2.4750    0.0000 O   0  0  0  0  0  0  0  0  0  0  0  0
    6.4272   -3.7086    0.0000 C   0  0  0  0  0  0  0  0  0  0  0  0
    7.1422   -3.2922    0.0000 C   0  0  0  0  0  0  0  0  0  0  0  0
    7.1422   -2.4750    0.0000 O   0  0  0  0  0  0  0  0  0  0  0  0
    7.8572   -2.0586    0.0000 C   0  0  0  0  0  0  0  0  0  0  0  0
    7.8572   -3.7086    0.0000 C   0  0  0  0  0  0  0  0  0  0  0  0
    7.8572   -4.5336    0.0000 C   0  0  0  0  0  0  0  0  0  0  0  0
    7.1422   -4.9422    0.0000 C   0  0  0  0  0  0  0  0  0  0  0  0
    6.4272   -4.5336    0.0000 C   0  0  0  0  0  0  0  0  0  0  0  0
    5.7122   -4.9422    0.0000 C   0  0  0  0  0  0  0  0  0  0  0  0
    5.7122   -5.7672    0.0000 O   0  0  0  0  0  0  0  0  0  0  0  0
    4.9972   -4.5336    0.0000 C   0  0  0  0  0  0  0  0  0  0  0  0
    4.2822   -4.9422    0.0000 C   0  0  0  0  0  0  0  0  0  0  0  0
    4.2822   -5.7672    0.0000 O   0  0  0  0  0  0  0  0  0  0  0  0
    3.5750   -4.5336    0.0000 C   0  0  0  0  0  0  0  0  0  0  0  0
    2.8600   -4.9422    0.0000 C   0  0  0  0  0  0  0  0  0  0  0  0
  1  2  1  0
  2  3  2  0
  4  2  1  0
  4  5  1  6
  4  6  1  0
  4 38  1  0
  6  7  1  0
  7  8  1  6
  7 18  1  0
  9  8  1  1
  9 10  1  0
  9 17  1  0
 10 11  1  0
 11 12  1  6
 11 13  1  0
 13 14  1  6
 13 15  1  0
 15 16  1  6
 15 17  1  0
 18 19  1  0
 18 37  2  0
 19 20  1  0
 19 21  2  0
 21 22  1  0
 21 34  1  0
 22 23  2  0
 22 24  1  0
 24 25  2  0
 24 31  1  0
 25 26  1  0
 25 28  1  0
 26 27  1  0
 28 29  2  0
 29 30  1  0
 30 31  2  0
 31 32  1  0
 32 33  2  0
 32 34  1  0
 34 35  2  0
 35 36  1  0
 35 37  1  0
 37 38  1  0
M  END
>  <Formula>  (226) 
C27H29NO10

>  <FW>  (226) 
527.5199

>  <DSSTox_CID>  (226) 
2883

>  <NR-Aromatase>  (226) 
1

>  <NR-AR>  (226) 
0

>  <NR-AR-LBD>  (226) 
1

>  <NR-ER>  (226) 
1

>  <NR-ER-LBD>  (226) 
1

>  <SR-ATAD5>  (226) 
1

>  <SR-MMP>  (226) 
1

>  <SR-p53>  (226) 
1

$$$$
NCGC00023193-04
     RDKit          2D

 31 35  0  0  1  0  0  0  0  0999 V2000
    5.0720   -1.2411    0.0000 C   0  0  0  0  0  0  0  0  0  0  0  0
    4.2901   -1.4993    0.0000 C   0  0  0  0  0  0  0  0  0  0  0  0
    2.8839   -2.3100    0.0000 C   0  0  0  0  0  0  0  0  0  0  0  0
    2.1593   -2.7189    0.0000 C   0  0  0  0  0  0  0  0  0  0  0  0
    4.2901   -2.3100    0.0000 C   0  0  0  0  0  0  0  0  0  0  0  0
    3.5726   -2.7261    0.0000 C   0  0  0  0  0  0  0  0  0  0  0  0
    5.5598   -1.9155    0.0000 C   0  0  0  0  0  0  0  0  0  0  0  0
    2.1593   -3.5511    0.0000 C   0  0  0  0  0  0  0  0  0  0  0  0
    5.5670   -0.5883    0.0000 O   0  0  0  0  0  0  0  0  0  0  0  0
    2.8839   -1.4993    0.0000 C   0  0  0  0  0  0  0  0  0  0  0  0
    3.5726   -1.0905    0.0000 C   0  0  0  0  0  0  0  0  0  0  0  0
    6.3418   -0.8393    0.0000 C   0  0  0  0  0  0  0  0  0  0  0  0
    6.3418   -1.6643    0.0000 O   0  0  0  0  0  0  0  0  0  0  0  0
    1.4420   -2.3100    0.0000 C   0  0  0  0  0  0  0  0  0  0  0  0
    5.0720   -2.5611    0.0000 C   0  0  0  0  0  0  0  0  0  0  0  0
    5.0720   -0.4161    0.0000 C   0  0  0  0  0  0  0  0  0  0  0  0
    1.4420   -3.9744    0.0000 C   0  0  0  0  0  0  0  0  0  0  0  0
    3.5726   -3.5511    0.0000 C   0  0  0  0  0  0  0  0  0  0  0  0
    0.7245   -2.7261    0.0000 C   0  0  0  0  0  0  0  0  0  0  0  0
    0.7245   -3.5439    0.0000 C   0  0  0  0  0  0  0  0  0  0  0  0
    2.8839   -3.9744    0.0000 C   0  0  0  0  0  0  0  0  0  0  0  0
    2.8911   -3.0991    0.0000 F   0  0  0  0  0  0  0  0  0  0  0  0
    5.8037    0.0000    0.0000 O   0  0  0  0  0  0  0  0  0  0  0  0
    0.0000   -3.9672    0.0000 O   0  0  0  0  0  0  0  0  0  0  0  0
    4.2901   -0.6600    0.0000 C   0  0  0  0  0  0  0  0  0  0  0  0
    2.1593   -1.0833    0.0000 O   0  0  0  0  0  0  0  0  0  0  0  0
    2.1593   -1.9011    0.0000 C   0  0  0  0  0  0  0  0  0  0  0  0
    4.3689    0.0000    0.0000 C   0  0  0  0  0  0  0  0  0  0  0  0
    7.1739   -0.8393    0.0000 C   0  0  0  0  0  0  0  0  0  0  0  0
    6.5570   -0.0359    0.0000 C   0  0  0  0  0  0  0  0  0  0  0  0
    3.6516   -0.4376    0.0000 O   0  0  0  0  0  0  0  0  0  0  0  0
  1  2  1  0
  1  7  1  0
  1  9  1  0
  1 16  1  1
  2  5  1  0
  2 11  1  0
  2 25  1  1
  3 10  1  0
  3  4  1  0
  3 22  1  6
  3  6  1  0
  4  8  1  0
  4 14  1  0
  4 27  1  1
  5  6  1  0
  5 15  1  1
  6 18  1  6
  7 13  1  0
  7 15  1  6
  8 17  2  0
  8 21  1  0
  9 12  1  0
 10 11  1  0
 10 26  1  1
 12 29  1  0
 12 30  1  0
 12 13  1  0
 14 19  2  0
 16 23  2  0
 16 28  1  0
 17 20  1  0
 18 21  1  0
 19 20  1  0
 20 24  2  0
 28 31  1  0
M  END
>  <Formula>  (227) 
C24H31FO6

>  <FW>  (227) 
434.4977

>  <DSSTox_CID>  (227) 
1371

>  <NR-AR>  (227) 
1

>  <NR-AR-LBD>  (227) 
0

>  <NR-ER>  (227) 
1

>  <NR-ER-LBD>  (227) 
1

>  <NR-PPAR-gamma>  (227) 
0

>  <NR-AhR>  (227) 
0

>  <SR-MMP>  (227) 
0

>  <SR-p53>  (227) 
0

$$$$
NCGC00164615-01
     RDKit          2D

 32 36  0  0  0  0  0  0  0  0999 V2000
    0.0000   -1.4249    0.0000 O   0  0  0  0  0  0  0  0  0  0  0  0
    0.5608   -0.8182    0.0000 C   0  0  0  0  0  0  0  0  0  0  0  0
    1.3147   -1.1583    0.0000 C   0  0  0  0  0  0  0  0  0  0  0  0
    1.2227   -1.9857    0.0000 O   0  0  0  0  0  0  0  0  0  0  0  0
    0.4321   -2.1420    0.0000 C   0  0  0  0  0  0  0  0  0  0  0  0
    3.4567   -0.7354    0.0000 C   0  0  0  0  0  0  0  0  0  0  0  0
    2.7396   -1.1583    0.0000 N   0  0  0  0  0  0  0  0  0  0  0  0
    2.7396   -1.9857    0.0000 C   0  0  0  0  0  0  0  0  0  0  0  0
    3.4567   -2.3902    0.0000 C   0  0  0  0  0  0  0  0  0  0  0  0
    4.1737   -1.9857    0.0000 N   0  0  0  0  0  0  0  0  0  0  0  0
    4.1737   -1.1583    0.0000 C   0  0  0  0  0  0  0  0  0  0  0  0
    2.0317   -0.7354    0.0000 C   0  0  0  0  0  0  0  0  0  0  0  0
    4.9000   -2.3902    0.0000 C   0  0  0  0  0  0  0  0  0  0  0  0
    4.9000   -3.2360    0.0000 C   0  0  0  0  0  0  0  0  0  0  0  0
    5.6171   -3.6405    0.0000 C   0  0  0  0  0  0  0  0  0  0  0  0
    5.6171   -1.9857    0.0000 C   0  0  0  0  0  0  0  0  0  0  0  0
    4.1737   -3.6405    0.0000 F   0  0  0  0  0  0  0  0  0  0  0  0
    6.3341   -2.3902    0.0000 C   0  0  0  0  0  0  0  0  0  0  0  0
    6.3341   -3.2360    0.0000 C   0  0  0  0  0  0  0  0  0  0  0  0
    7.0512   -3.6405    0.0000 C   0  0  0  0  0  0  0  0  0  0  0  0
    7.7683   -3.2360    0.0000 C   0  0  0  0  0  0  0  0  0  0  0  0
    7.0512   -4.4679    0.0000 O   0  0  0  0  0  0  0  0  0  0  0  0
    8.4761   -3.6405    0.0000 C   0  0  0  0  0  0  0  0  0  0  0  0
    8.4761   -4.4679    0.0000 O   0  0  0  0  0  0  0  0  0  0  0  0
    9.1932   -3.2360    0.0000 O   0  0  0  0  0  0  0  0  0  0  0  0
    7.0512   -1.9857    0.0000 N   0  0  0  0  0  0  0  0  0  0  0  0
    7.7683   -2.3902    0.0000 C   0  0  0  0  0  0  0  0  0  0  0  0
    8.1728   -1.6732    0.0000 S   0  0  0  0  0  0  0  0  0  0  0  0
    7.4557   -1.2686    0.0000 C   0  0  0  0  0  0  0  0  0  0  0  0
    7.2534   -0.4688    0.0000 C   0  0  0  0  0  0  0  0  0  0  0  0
    0.3861    0.0000    0.0000 C   0  0  0  0  0  0  0  0  0  0  0  0
    0.0827   -2.9142    0.0000 O   0  0  0  0  0  0  0  0  0  0  0  0
  1  5  1  0
  1  2  1  0
  2 31  1  0
  2  3  2  0
  3  4  1  0
  3 12  1  0
  4  5  1  0
  5 32  2  0
  6 11  1  0
  6  7  1  0
  7  8  1  0
  7 12  1  0
  8  9  1  0
  9 10  1  0
 10 11  1  0
 10 13  1  0
 13 14  2  0
 13 16  1  0
 14 15  1  0
 14 17  1  0
 15 19  2  0
 16 18  2  0
 18 19  1  0
 18 26  1  0
 19 20  1  0
 20 21  1  0
 20 22  2  0
 21 27  2  0
 21 23  1  0
 23 24  1  0
 23 25  2  0
 26 27  1  0
 26 29  1  0
 27 28  1  0
 28 29  1  0
 29 30  1  0
M  END
>  <Formula>  (228) 
C21H20FN3O6S

>  <FW>  (228) 
461.4634

>  <DSSTox_CID>  (228) 
26480

>  <NR-AR>  (228) 
1

>  <NR-AR-LBD>  (228) 
1

>  <NR-ER>  (228) 
1

>  <NR-ER-LBD>  (228) 
1

>  <NR-PPAR-gamma>  (228) 
0

>  <NR-AhR>  (228) 
0

>  <SR-ATAD5>  (228) 
0

>  <SR-p53>  (228) 
0

$$$$
NCGC00189073-01
     RDKit          2D

 27 29  0  0  0  0  0  0  0  0999 V2000
    1.9723   -6.1877    0.0000 N   0  0  0  0  0  0  0  0  0  0  0  0
    0.8186   -5.5173    0.0000 N   0  0  0  0  0  0  0  0  0  0  0  0
    1.1602   -6.2779    0.0000 C   0  0  0  0  0  0  0  0  0  0  0  0
    2.1463   -5.3820    0.0000 C   0  0  0  0  0  0  0  0  0  0  0  0
    1.4373   -4.9695    0.0000 C   0  0  0  0  0  0  0  0  0  0  0  0
    1.4373   -4.1445    0.0000 C   0  0  0  0  0  0  0  0  0  0  0  0
    2.1528   -3.7319    0.0000 C   0  0  0  0  0  0  0  0  0  0  0  0
    2.8618   -4.1445    0.0000 C   0  0  0  0  0  0  0  0  0  0  0  0
    2.8618   -4.9630    0.0000 C   0  0  0  0  0  0  0  0  0  0  0  0
    2.1528   -2.9069    0.0000 C   0  0  0  0  0  0  0  0  0  0  0  0
    2.8618   -2.4879    0.0000 O   0  0  0  0  0  0  0  0  0  0  0  0
    1.4373   -2.4879    0.0000 N   0  0  0  0  0  0  0  0  0  0  0  0
    3.5837   -3.7255    0.0000 N   0  0  0  0  0  0  0  0  0  0  0  0
    5.7301   -4.1445    0.0000 C   0  0  0  0  0  0  0  0  0  0  0  0
    5.7301   -4.9695    0.0000 C   0  0  0  0  0  0  0  0  0  0  0  0
    5.0081   -5.3820    0.0000 C   0  0  0  0  0  0  0  0  0  0  0  0
    4.2927   -4.9630    0.0000 C   0  0  0  0  0  0  0  0  0  0  0  0
    4.2991   -4.1445    0.0000 C   0  0  0  0  0  0  0  0  0  0  0  0
    5.0211   -3.7255    0.0000 C   0  0  0  0  0  0  0  0  0  0  0  0
    6.4455   -5.3820    0.0000 Br  0  0  0  0  0  0  0  0  0  0  0  0
    5.0211   -2.8940    0.0000 Cl  0  0  0  0  0  0  0  0  0  0  0  0
    3.5837   -5.3820    0.0000 F   0  0  0  0  0  0  0  0  0  0  0  0
    1.4373   -1.6565    0.0000 O   0  0  0  0  0  0  0  0  0  0  0  0
    0.7155   -1.2504    0.0000 C   0  0  0  0  0  0  0  0  0  0  0  0
    0.7090   -0.4125    0.0000 C   0  0  0  0  0  0  0  0  0  0  0  0
    0.0000    0.0000    0.0000 O   0  0  0  0  0  0  0  0  0  0  0  0
    0.0129   -5.3497    0.0000 C   0  0  0  0  0  0  0  0  0  0  0  0
  1  3  2  0
  1  4  1  0
  2  3  1  0
  2  5  1  0
  2 27  1  0
  4  5  2  0
  4  9  1  0
  5  6  1  0
  6  7  2  0
  7  8  1  0
  7 10  1  0
  8  9  2  0
  8 13  1  0
  9 22  1  0
 10 11  2  0
 10 12  1  0
 12 23  1  0
 13 18  1  0
 14 19  2  0
 14 15  1  0
 15 16  2  0
 15 20  1  0
 16 17  1  0
 17 18  2  0
 18 19  1  0
 19 21  1  0
 23 24  1  0
 24 25  1  0
 25 26  1  0
M  END
>  <Formula>  (229) 
C17H15BrClFN4O3

>  <FW>  (229) 
457.6814

>  <DSSTox_CID>  (229) 
28870

>  <NR-AR>  (229) 
0

>  <NR-AR-LBD>  (229) 
0

>  <NR-ER>  (229) 
1

>  <NR-ER-LBD>  (229) 
1

>  <NR-PPAR-gamma>  (229) 
0

>  <SR-ATAD5>  (229) 
0

>  <SR-MMP>  (229) 
0

>  <SR-p53>  (229) 
0

$$$$
NCGC00182713-01
     RDKit          2D

 34 37  0  0  0  0  0  0  0  0999 V2000
    6.4307   -1.6602    0.0000 C   0  0  0  0  0  0  0  0  0  0  0  0
    6.4307   -2.4902    0.0000 C   0  0  0  0  0  0  0  0  0  0  0  0
    5.7206   -1.2401    0.0000 C   0  0  0  0  0  0  0  0  0  0  0  0
    5.7206   -2.8903    0.0000 C   0  0  0  0  0  0  0  0  0  0  0  0
    5.0005   -1.6602    0.0000 C   0  0  0  0  0  0  0  0  0  0  0  0
    5.0005   -2.4902    0.0000 C   0  0  0  0  0  0  0  0  0  0  0  0
    7.1508   -1.2401    0.0000 N   0  0  0  0  0  0  0  0  0  0  0  0
    7.8608   -1.6602    0.0000 C   0  0  0  0  0  0  0  0  0  0  0  0
    7.1508   -2.8903    0.0000 C   0  0  0  0  0  0  0  0  0  0  0  0
    7.8608   -2.4902    0.0000 N   0  0  0  0  0  0  0  0  0  0  0  0
    4.2804   -1.2401    0.0000 O   0  0  0  0  0  0  0  0  0  0  0  0
    3.5704   -1.6602    0.0000 C   0  0  0  0  0  0  0  0  0  0  0  0
    2.8503   -1.2401    0.0000 C   0  0  0  0  0  0  0  0  0  0  0  0
    2.1502   -1.6501    0.0000 C   0  0  0  0  0  0  0  0  0  0  0  0
    1.4301   -1.2401    0.0000 N   0  0  0  0  0  0  0  0  0  0  0  0
    0.7201   -1.6501    0.0000 C   0  0  0  0  0  0  0  0  0  0  0  0
    1.4301   -0.4200    0.0000 C   0  0  0  0  0  0  0  0  0  0  0  0
    0.0000   -1.2401    0.0000 C   0  0  0  0  0  0  0  0  0  0  0  0
    0.7201    0.0000    0.0000 C   0  0  0  0  0  0  0  0  0  0  0  0
    0.0000   -0.4200    0.0000 O   0  0  0  0  0  0  0  0  0  0  0  0
    4.2804   -2.8903    0.0000 N   0  0  0  0  0  0  0  0  0  0  0  0
    4.2804   -3.7204    0.0000 C   0  0  0  0  0  0  0  0  0  0  0  0
    3.5704   -4.1304    0.0000 C   0  0  0  0  0  0  0  0  0  0  0  0
    5.0005   -4.1404    0.0000 O   0  0  0  0  0  0  0  0  0  0  0  0
    2.8503   -3.7204    0.0000 C   0  0  0  0  0  0  0  0  0  0  0  0
    7.1508   -3.7204    0.0000 N   0  0  0  0  0  0  0  0  0  0  0  0
    7.8608   -4.1404    0.0000 C   0  0  0  0  0  0  0  0  0  0  0  0
    8.5809   -3.7204    0.0000 C   0  0  0  0  0  0  0  0  0  0  0  0
    7.8608   -4.9605    0.0000 C   0  0  0  0  0  0  0  0  0  0  0  0
    9.2810   -4.1404    0.0000 C   0  0  0  0  0  0  0  0  0  0  0  0
    8.5809   -5.3706    0.0000 C   0  0  0  0  0  0  0  0  0  0  0  0
    9.2810   -4.9605    0.0000 C   0  0  0  0  0  0  0  0  0  0  0  0
   10.0010   -3.7204    0.0000 Cl  0  0  0  0  0  0  0  0  0  0  0  0
   10.0010   -5.3706    0.0000 F   0  0  0  0  0  0  0  0  0  0  0  0
  1  3  2  0
  1  7  1  0
  1  2  1  0
  2  4  2  0
  2  9  1  0
  3  5  1  0
  4  6  1  0
  5  6  2  0
  5 11  1  0
  6 21  1  0
  7  8  2  0
  8 10  1  0
  9 10  2  0
  9 26  1  0
 11 12  1  0
 12 13  1  0
 13 14  1  0
 14 15  1  0
 15 16  1  0
 15 17  1  0
 16 18  1  0
 17 19  1  0
 18 20  1  0
 19 20  1  0
 21 22  1  0
 22 23  1  0
 22 24  2  0
 23 25  2  0
 26 27  1  0
 27 28  2  0
 27 29  1  0
 28 30  1  0
 29 31  2  0
 30 32  2  0
 30 33  1  0
 31 32  1  0
 32 34  1  0
M  END
>  <Formula>  (230) 
C24H25ClFN5O3

>  <FW>  (230) 
485.9384

>  <DSSTox_CID>  (230) 
28869

>  <NR-AR>  (230) 
0

>  <NR-ER>  (230) 
1

>  <NR-ER-LBD>  (230) 
1

>  <NR-PPAR-gamma>  (230) 
0

>  <NR-AhR>  (230) 
0

>  <SR-ARE>  (230) 
1

>  <SR-HSE>  (230) 
1

>  <SR-p53>  (230) 
1

$$$$
NCGC00260032-01
     RDKit          2D

 40 43  0  0  1  0  0  0  0  0999 V2000
    2.0995   -6.7060    0.0000 O   0  0  0  0  0  0  0  0  0  0  0  0
    2.3816   -5.9304    0.0000 C   0  0  0  0  0  0  0  0  0  0  0  0
    1.8567   -5.3115    0.0000 C   0  0  0  0  0  0  0  0  0  0  0  0
    1.0420   -5.4447    0.0000 O   0  0  0  0  0  0  0  0  0  0  0  0
    2.1387   -4.5281    0.0000 C   0  0  0  0  0  0  0  0  0  0  0  0
    1.3318   -4.3871    0.0000 O   0  0  0  0  0  0  0  0  0  0  0  0
    2.1387   -3.6977    0.0000 C   0  0  0  0  0  0  0  0  0  0  0  0
    2.8594   -3.2982    0.0000 C   0  0  0  0  0  0  0  0  0  0  0  0
    2.8594   -2.4677    0.0000 O   0  0  0  0  0  0  0  0  0  0  0  0
    2.1387   -2.0525    0.0000 C   0  0  0  0  0  0  0  0  0  0  0  0
    1.4258   -2.4677    0.0000 C   0  0  0  0  0  0  0  0  0  0  0  0
    0.7129   -2.0525    0.0000 C   0  0  0  0  0  0  0  0  0  0  0  0
    0.0000   -2.4677    0.0000 N   0  0  0  0  0  0  0  0  0  0  0  0
    0.7129   -1.2300    0.0000 C   0  0  0  0  0  0  0  0  0  0  0  0
    0.0000   -0.8226    0.0000 O   0  0  0  0  0  0  0  0  0  0  0  0
    1.4258   -0.8226    0.0000 C   0  0  0  0  0  0  0  0  0  0  0  0
    1.4258    0.0000    0.0000 C   0  0  0  0  0  0  0  0  0  0  0  0
    2.1387   -1.2300    0.0000 O   0  0  0  0  0  0  0  0  0  0  0  0
    3.5724   -3.6977    0.0000 C   0  0  0  0  0  0  0  0  0  0  0  0
    4.2774   -3.2982    0.0000 C   0  0  0  0  0  0  0  0  0  0  0  0
    4.2774   -2.4677    0.0000 O   0  0  0  0  0  0  0  0  0  0  0  0
    4.9903   -3.6977    0.0000 C   0  0  0  0  0  0  0  0  0  0  0  0
    5.7032   -3.2982    0.0000 C   0  0  0  0  0  0  0  0  0  0  0  0
    5.7032   -2.4677    0.0000 O   0  0  0  0  0  0  0  0  0  0  0  0
    6.4161   -3.6977    0.0000 C   0  0  0  0  0  0  0  0  0  0  0  0
    7.1291   -3.2982    0.0000 C   0  0  0  0  0  0  0  0  0  0  0  0
    7.1291   -2.4677    0.0000 O   0  0  0  0  0  0  0  0  0  0  0  0
    7.8341   -2.0525    0.0000 C   0  0  0  0  0  0  0  0  0  0  0  0
    7.8341   -3.6977    0.0000 C   0  0  0  0  0  0  0  0  0  0  0  0
    7.8341   -4.5281    0.0000 C   0  0  0  0  0  0  0  0  0  0  0  0
    7.1291   -4.9433    0.0000 C   0  0  0  0  0  0  0  0  0  0  0  0
    6.4161   -4.5281    0.0000 C   0  0  0  0  0  0  0  0  0  0  0  0
    5.7032   -4.9433    0.0000 C   0  0  0  0  0  0  0  0  0  0  0  0
    5.7032   -5.7659    0.0000 O   0  0  0  0  0  0  0  0  0  0  0  0
    4.9903   -4.5281    0.0000 C   0  0  0  0  0  0  0  0  0  0  0  0
    4.2774   -4.9433    0.0000 C   0  0  0  0  0  0  0  0  0  0  0  0
    4.2774   -5.7659    0.0000 O   0  0  0  0  0  0  0  0  0  0  0  0
    3.5724   -4.5281    0.0000 C   0  0  0  0  0  0  0  0  0  0  0  0
    2.8594   -4.9433    0.0000 C   0  0  0  0  0  0  0  0  0  0  0  0
    5.9696   -0.3682    0.0000 Cl  0  0  0  0  0  0  0  0  0  0  0  0
  1  2  1  0
  2  3  1  0
  3  4  2  0
  5  3  1  0
  5  6  1  6
  5  7  1  0
  5 39  1  0
  7  8  1  0
  8  9  1  6
  8 19  1  0
 10  9  1  1
 10 11  1  0
 10 18  1  0
 11 12  1  0
 12 13  1  6
 12 14  1  0
 14 15  1  6
 14 16  1  0
 16 17  1  6
 16 18  1  0
 19 20  1  0
 19 38  2  0
 20 21  1  0
 20 22  2  0
 22 23  1  0
 22 35  1  0
 23 24  2  0
 23 25  1  0
 25 26  2  0
 25 32  1  0
 26 27  1  0
 26 29  1  0
 27 28  1  0
 29 30  2  0
 30 31  1  0
 31 32  2  0
 32 33  1  0
 33 34  2  0
 33 35  1  0
 35 36  2  0
 36 37  1  0
 36 38  1  0
 38 39  1  0
M  END
>  <Formula>  (231) 
C27H30ClNO11

>  <FW>  (231) 
579.9802 (543.5193+36.4609)

>  <DSSTox_CID>  (231) 
10636

>  <NR-Aromatase>  (231) 
1

>  <NR-AR>  (231) 
0

>  <NR-AR-LBD>  (231) 
1

>  <NR-ER-LBD>  (231) 
1

>  <NR-AhR>  (231) 
0

>  <SR-ATAD5>  (231) 
1

>  <SR-HSE>  (231) 
0

>  <SR-MMP>  (231) 
1

>  <SR-p53>  (231) 
1

$$$$
NCGC00166283-01
     RDKit          2D

 44 46  0  0  0  0  0  0  0  0999 V2000
    2.9440   -4.5886    0.0000 C   0  0  0  0  0  0  0  0  0  0  0  0
    5.1759   -2.3346    0.0000 C   0  0  0  0  0  0  0  0  0  0  0  0
    4.3903   -4.5886    0.0000 C   0  0  0  0  0  0  0  0  0  0  0  0
    2.9440   -1.2334    0.0000 C   0  0  0  0  0  0  0  0  0  0  0  0
    5.1759   -3.4946    0.0000 C   0  0  0  0  0  0  0  0  0  0  0  0
    2.1584   -2.3346    0.0000 C   0  0  0  0  0  0  0  0  0  0  0  0
    4.3903   -1.2334    0.0000 C   0  0  0  0  0  0  0  0  0  0  0  0
    2.1584   -3.4946    0.0000 C   0  0  0  0  0  0  0  0  0  0  0  0
    4.3903   -2.0703    0.0000 N   0  0  0  0  0  0  0  0  0  0  0  0
    2.9440   -3.7222    0.0000 N   0  0  0  0  0  0  0  0  0  0  0  0
    2.9440   -2.0703    0.0000 N   0  0  0  0  0  0  0  0  0  0  0  0
    4.3903   -3.7222    0.0000 N   0  0  0  0  0  0  0  0  0  0  0  0
    2.1584   -4.8161    0.0000 C   0  0  0  0  0  0  0  0  0  0  0  0
    5.1759   -4.8161    0.0000 C   0  0  0  0  0  0  0  0  0  0  0  0
    5.6531   -1.6739    0.0000 C   0  0  0  0  0  0  0  0  0  0  0  0
    2.1584   -0.9617    0.0000 C   0  0  0  0  0  0  0  0  0  0  0  0
    5.4035   -2.9367    0.0000 C   0  0  0  0  0  0  0  0  0  0  0  0
    3.6635   -4.9923    0.0000 C   0  0  0  0  0  0  0  0  0  0  0  0
    1.8501   -2.8926    0.0000 C   0  0  0  0  0  0  0  0  0  0  0  0
    3.6708   -0.8076    0.0000 C   0  0  0  0  0  0  0  0  0  0  0  0
    5.6531   -4.1480    0.0000 C   0  0  0  0  0  0  0  0  0  0  0  0
    1.6739   -1.6739    0.0000 C   0  0  0  0  0  0  0  0  0  0  0  0
    1.6739   -4.1480    0.0000 C   0  0  0  0  0  0  0  0  0  0  0  0
    5.1759   -0.9617    0.0000 C   0  0  0  0  0  0  0  0  0  0  0  0
    1.8575   -5.6237    0.0000 C   0  0  0  0  0  0  0  0  0  0  0  0
    5.4548   -5.6237    0.0000 C   0  0  0  0  0  0  0  0  0  0  0  0
    1.9235   -0.1909    0.0000 C   0  0  0  0  0  0  0  0  0  0  0  0
    6.4680   -1.6739    0.0000 C   0  0  0  0  0  0  0  0  0  0  0  0
    0.8369   -6.5561    0.0000 C   0  0  0  0  0  0  0  0  0  0  0  0
    6.5487   -6.5634    0.0000 C   0  0  0  0  0  0  0  0  0  0  0  0
    0.0000   -6.7029    0.0000 O   0  0  0  0  0  0  0  0  0  0  0  0
    7.3417   -6.7323    0.0000 O   0  0  0  0  0  0  0  0  0  0  0  0
    1.0645   -5.7485    0.0000 C   0  0  0  0  0  0  0  0  0  0  0  0
    6.2771   -5.7999    0.0000 C   0  0  0  0  0  0  0  0  0  0  0  0
    1.1306    0.0000    0.0000 C   0  0  0  0  0  0  0  0  0  0  0  0
    6.8865   -0.9911    0.0000 C   0  0  0  0  0  0  0  0  0  0  0  0
    1.3142   -7.2022    0.0000 O   0  0  0  0  0  0  0  0  0  0  0  0
    5.9908   -7.2022    0.0000 O   0  0  0  0  0  0  0  0  0  0  0  0
    0.8369   -1.6739    0.0000 C   0  0  0  0  0  0  0  0  0  0  0  0
    6.4973   -4.1480    0.0000 C   0  0  0  0  0  0  0  0  0  0  0  0
    5.4548   -0.1689    0.0000 C   0  0  0  0  0  0  0  0  0  0  0  0
    0.8369   -4.1480    0.0000 C   0  0  0  0  0  0  0  0  0  0  0  0
    2.3567   -7.1655    0.0000 Na  0  0  0  0  0 15  0  0  0  0  0  0
    5.1832   -7.1361    0.0000 Na  0  0  0  0  0 15  0  0  0  0  0  0
  1 10  2  0
  1 13  1  0
  1 18  1  0
  2 17  1  0
  2  9  2  0
  2 15  1  0
  3 18  2  0
  3 12  1  0
  3 14  1  0
  4 11  1  0
  4 20  1  0
  4 16  2  0
  5 12  1  0
  5 17  2  0
  5 21  1  0
  6 19  1  0
  6 11  1  0
  6 22  2  0
  7  9  1  0
  7 20  2  0
  7 24  1  0
  8 10  1  0
  8 19  2  0
  8 23  1  0
 13 23  2  0
 13 25  1  0
 14 21  2  0
 14 26  1  0
 15 24  2  0
 15 28  1  0
 16 22  1  0
 16 27  1  0
 21 40  1  0
 22 39  1  0
 23 42  1  0
 24 41  1  0
 25 33  1  0
 26 34  1  0
 27 35  2  0
 28 36  2  0
 29 33  1  0
 29 31  2  0
 29 37  1  0
 30 34  1  0
 30 32  2  0
 30 38  1  0
M  CHG  4  37  -1  38  -1  43   1  44   1
M  END
>  <Formula>  (232) 
C34H32N4Na2O4

>  <FW>  (232) 
606.6218 (560.6434+22.9892+22.9892)

>  <DSSTox_CID>  (232) 
26589

>  <NR-Aromatase>  (232) 
0

>  <NR-AR>  (232) 
0

>  <NR-AR-LBD>  (232) 
0

>  <NR-ER>  (232) 
1

>  <NR-ER-LBD>  (232) 
1

>  <NR-PPAR-gamma>  (232) 
0

>  <NR-AhR>  (232) 
0

>  <SR-ATAD5>  (232) 
0

>  <SR-MMP>  (232) 
0

>  <SR-p53>  (232) 
0

$$$$
NCGC00167506-01
     RDKit          2D

 56 59  0  0  1  0  0  0  0  0999 V2000
    7.1493   -1.1849    0.0000 C   0  0  0  0  0  0  0  0  0  0  0  0
    7.8662   -1.5931    0.0000 C   0  0  0  0  0  0  0  0  0  0  0  0
    7.8662   -2.4395    0.0000 C   0  0  0  0  0  0  0  0  0  0  0  0
    8.5931   -2.8577    0.0000 C   0  0  0  0  0  0  0  0  0  0  0  0
    8.5931   -3.6941    0.0000 C   0  0  0  0  0  0  0  0  0  0  0  0
    7.8662   -5.3868    0.0000 C   0  0  0  0  0  0  0  0  0  0  0  0
    6.4224   -5.3868    0.0000 C   0  0  0  0  0  0  0  0  0  0  0  0
    4.9686   -4.9587    0.0000 C   0  0  0  0  0  0  0  0  0  0  0  0
    5.6856   -5.3669    0.0000 C   0  0  0  0  0  0  0  0  0  0  0  0
    9.3299   -4.1123    0.0000 C   0  0  0  0  0  0  0  0  0  0  0  0
    8.5931   -5.3669    0.0000 C   0  0  0  0  0  0  0  0  0  0  0  0
    9.3299   -4.9587    0.0000 C   0  0  0  0  0  0  0  0  0  0  0  0
    4.9686   -2.4395    0.0000 C   0  0  0  0  0  0  0  0  0  0  0  0
    4.2318   -3.6941    0.0000 O   0  0  0  0  0  0  0  0  0  0  0  0
    4.2318   -2.8577    0.0000 C   0  0  0  0  0  0  0  0  0  0  0  0
    4.9686   -1.5931    0.0000 C   0  0  0  0  0  0  0  0  0  0  0  0
    5.6856   -1.1849    0.0000 C   0  0  0  0  0  0  0  0  0  0  0  0
    3.5149   -4.1123    0.0000 C   0  0  0  0  0  0  0  0  0  0  0  0
    3.5149   -4.9587    0.0000 C   0  0  0  0  0  0  0  0  0  0  0  0
    4.2318   -5.3669    0.0000 N   0  0  0  0  0  0  0  0  0  0  0  0
    7.1493   -4.9587    0.0000 O   0  0  0  0  0  0  0  0  0  0  0  0
    7.8662   -6.2232    0.0000 C   0  0  0  0  0  0  0  0  0  0  0  0
    7.1493   -6.6415    0.0000 C   0  0  0  0  0  0  0  0  0  0  0  0
    6.4224   -6.2232    0.0000 C   0  0  0  0  0  0  0  0  0  0  0  0
    2.7781   -5.3669    0.0000 C   0  0  0  0  0  0  0  0  0  0  0  0
    2.7781   -6.2232    0.0000 C   0  0  0  0  0  0  0  0  0  0  0  0
    4.2318   -6.2232    0.0000 C   0  0  0  0  0  0  0  0  0  0  0  0
    3.5149   -6.6315    0.0000 C   0  0  0  0  0  0  0  0  0  0  0  0
    3.5348   -2.4495    0.0000 C   0  0  0  0  0  0  0  0  0  0  0  0
    2.8179   -2.8577    0.0000 C   0  0  0  0  0  0  0  0  0  0  0  0
    2.1209   -2.4495    0.0000 C   0  0  0  0  0  0  0  0  0  0  0  0
    1.4239   -1.2447    0.0000 C   0  0  0  0  0  0  0  0  0  0  0  0
    2.1209   -1.6330    0.0000 C   0  0  0  0  0  0  0  0  0  0  0  0
    0.7070   -1.6330    0.0000 C   0  0  0  0  0  0  0  0  0  0  0  0
    0.7070   -2.4495    0.0000 C   0  0  0  0  0  0  0  0  0  0  0  0
    1.4239   -2.8577    0.0000 C   0  0  0  0  0  0  0  0  0  0  0  0
    0.0000   -1.2447    0.0000 Cl  0  0  0  0  0  0  0  0  0  0  0  0
    1.4239   -0.4182    0.0000 O   0  0  0  0  0  0  0  0  0  0  0  0
    2.1209    0.0000    0.0000 C   0  0  0  0  0  0  0  0  0  0  0  0
    3.5348   -1.7226    0.0000 C   0  0  0  0  0  0  0  0  0  0  0  0
    2.8876   -3.7539    0.0000 O   0  0  0  0  0  0  0  0  0  0  0  0
    4.9686   -4.2318    0.0000 O   0  0  0  0  0  0  0  0  0  0  0  0
    5.5064   -6.0739    0.0000 O   0  0  0  0  0  0  0  0  0  0  0  0
    5.7951   -6.5917    0.0000 C   0  0  0  0  0  0  0  0  0  0  0  0
    8.4935   -6.5917    0.0000 O   0  0  0  0  0  0  0  0  0  0  0  0
    8.4935   -7.2986    0.0000 C   0  0  0  0  0  0  0  0  0  0  0  0
    6.4125   -4.6600    0.0000 O   0  0  0  0  0  0  0  0  0  0  0  0
    8.7823   -6.0739    0.0000 O   0  0  0  0  0  0  0  0  0  0  0  0
    9.4892   -6.2531    0.0000 C   0  0  0  0  0  0  0  0  0  0  0  0
    9.9572   -3.7539    0.0000 C   0  0  0  0  0  0  0  0  0  0  0  0
    9.2204   -2.4893    0.0000 C   0  0  0  0  0  0  0  0  0  0  0  0
    8.4935   -1.2447    0.0000 C   0  0  0  0  0  0  0  0  0  0  0  0
    9.1208   -1.5931    0.0000 C   0  0  0  0  0  0  0  0  0  0  0  0
    7.3285   -0.4779    0.0000 O   0  0  0  0  0  0  0  0  0  0  0  0
    4.3314   -1.2447    0.0000 O   0  0  0  0  0  0  0  0  0  0  0  0
    5.5860   -2.7880    0.0000 C   0  0  0  0  0  0  0  0  0  0  0  0
  1 17  1  0
  1  2  1  0
  1 54  2  0
  2  3  1  0
  2 52  1  6
  3  4  2  0
  4  5  1  0
  4 51  1  0
  5 10  1  0
  6 21  1  6
  6 11  1  0
  6 22  1  0
  7  9  1  0
  7 21  1  0
  7 24  1  0
  7 47  1  1
  8  9  1  0
  8 20  1  0
  8 42  2  0
  9 43  2  0
 10 12  1  0
 10 50  1  6
 11 12  1  0
 11 48  1  6
 13 15  1  0
 13 16  1  0
 13 56  1  1
 15 14  1  6
 14 18  1  0
 15 29  1  0
 16 17  1  0
 16 55  1  1
 18 19  1  0
 18 41  2  0
 19 25  1  1
 19 20  1  0
 20 27  1  0
 22 23  1  0
 22 45  1  1
 23 24  1  0
 24 44  1  1
 25 26  1  0
 26 28  1  0
 27 28  1  0
 29 30  2  0
 29 40  1  0
 31 30  1  0
 31 33  1  6
 31 36  1  0
 32 33  1  0
 32 34  1  0
 32 38  1  6
 34 35  1  0
 34 37  1  1
 35 36  1  0
 38 39  1  0
 45 46  1  0
 48 49  1  0
 52 53  1  0
M  END
>  <Formula>  (233) 
C43H68ClNO11

>  <FW>  (233) 
810.4531

>  <DSSTox_CID>  (233) 
26674

>  <NR-Aromatase>  (233) 
0

>  <NR-AR>  (233) 
0

>  <NR-AR-LBD>  (233) 
0

>  <NR-ER>  (233) 
1

>  <NR-ER-LBD>  (233) 
1

>  <NR-PPAR-gamma>  (233) 
0

>  <NR-AhR>  (233) 
0

>  <SR-ATAD5>  (233) 
0

>  <SR-MMP>  (233) 
0

>  <SR-p53>  (233) 
0

$$$$
NCGC00168265-01
     RDKit          2D

 24 27  0  0  1  0  0  0  0  0999 V2000
    2.1427   -2.5344    0.0000 C   0  0  0  0  0  0  0  0  0  0  0  0
    2.8252   -1.3117    0.0000 C   0  0  0  0  0  0  0  0  0  0  0  0
    2.1427   -1.7213    0.0000 C   0  0  0  0  0  0  0  0  0  0  0  0
    2.1427   -4.1963    0.0000 C   0  0  0  0  0  0  0  0  0  0  0  0
    2.8252   -2.9558    0.0000 C   0  0  0  0  0  0  0  0  0  0  0  0
    1.4067   -2.9558    0.0000 C   0  0  0  0  0  0  0  0  0  0  0  0
    3.5434   -2.5344    0.0000 N   0  0  0  0  0  0  0  0  0  0  0  0
    1.4067   -3.7808    0.0000 C   0  0  0  0  0  0  0  0  0  0  0  0
    3.5256   -0.8725    0.0000 C   0  0  0  0  0  0  0  0  0  0  0  0
    2.8252   -3.7808    0.0000 C   0  0  0  0  0  0  0  0  0  0  0  0
    2.1427   -5.0273    0.0000 C   0  0  0  0  0  0  0  0  0  0  0  0
    0.7063   -5.0273    0.0000 N   0  0  0  0  0  0  0  0  0  0  0  0
    3.5434   -1.7213    0.0000 C   0  0  0  0  0  0  0  0  0  0  0  0
    0.7063   -4.1963    0.0000 C   0  0  0  0  0  0  0  0  0  0  0  0
    4.3328   -1.2227    0.0000 N   0  0  0  0  0  0  0  0  0  0  0  0
    3.5256    0.0000    0.0000 O   0  0  0  0  0  0  0  0  0  0  0  0
    0.7063   -2.5344    0.0000 C   0  0  0  0  0  0  0  0  0  0  0  0
    4.2735   -2.9677    0.0000 C   0  0  0  0  0  0  0  0  0  0  0  0
    0.0000   -2.9558    0.0000 C   0  0  0  0  0  0  0  0  0  0  0  0
    0.0000   -3.7808    0.0000 C   0  0  0  0  0  0  0  0  0  0  0  0
    5.1222   -0.7894    0.0000 C   0  0  0  0  0  0  0  0  0  0  0  0
    4.3328   -2.0655    0.0000 C   0  0  0  0  0  0  0  0  0  0  0  0
    5.1519   -2.5760    0.0000 C   0  0  0  0  0  0  0  0  0  0  0  0
    5.9354   -1.2227    0.0000 C   0  0  0  0  0  0  0  0  0  0  0  0
  1  3  2  0
  1  5  1  0
  1  6  1  0
  2  3  1  0
  2  9  1  1
  2 13  1  0
  4  8  1  0
  4 11  2  0
  4 10  1  0
  5  7  1  0
  5 10  1  6
  6  8  2  0
  6 17  1  0
  7 13  1  0
  7 18  1  0
  8 14  1  0
  9 15  1  0
  9 16  2  0
 11 12  1  0
 12 14  1  0
 14 20  2  0
 15 21  1  0
 15 22  1  0
 17 19  2  0
 19 20  1  0
 21 24  1  0
 22 23  1  0
M  END
>  <Formula>  (234) 
C20H25N3O

>  <FW>  (234) 
323.4320

>  <DSSTox_CID>  (234) 
3231

>  <NR-Aromatase>  (234) 
0

>  <NR-AR>  (234) 
0

>  <NR-AR-LBD>  (234) 
0

>  <NR-ER>  (234) 
1

>  <NR-ER-LBD>  (234) 
1

>  <NR-PPAR-gamma>  (234) 
0

>  <NR-AhR>  (234) 
1

>  <SR-ATAD5>  (234) 
0

>  <SR-MMP>  (234) 
1

>  <SR-p53>  (234) 
0

$$$$
NCGC00091560-01
     RDKit          2D

 29 31  0  0  1  0  0  0  0  0999 V2000
    4.3312   -3.7039    0.0000 N   0  0  0  0  0  0  0  0  0  0  0  0
    3.5320   -3.7039    0.0000 C   0  0  0  0  0  0  0  0  0  0  0  0
    3.5320   -2.8875    0.0000 C   0  0  0  0  0  0  0  0  0  0  0  0
    4.3312   -2.8875    0.0000 C   0  0  0  0  0  0  0  0  0  0  0  0
    5.0273   -4.0992    0.0000 C   0  0  0  0  0  0  0  0  0  0  0  0
    2.7070   -2.8875    0.0000 N   0  0  0  0  0  0  0  0  0  0  0  0
    2.2945   -2.2086    0.0000 C   0  0  0  0  0  0  0  0  0  0  0  0
    1.4609   -2.2086    0.0000 C   0  0  0  0  0  0  0  0  0  0  0  0
    5.0273   -2.4921    0.0000 S   0  0  0  0  0  0  0  0  0  0  0  0
    5.7578   -3.7039    0.0000 C   0  0  0  0  0  0  0  0  0  0  0  0
    1.0656   -2.8875    0.0000 C   0  0  0  0  0  0  0  0  0  0  0  0
    5.0273   -4.9242    0.0000 C   0  0  0  0  0  0  0  0  0  0  0  0
    7.8804   -4.1507    0.0000 C   0  0  0  0  0  0  0  0  0  0  0  0
    5.7578   -2.8789    0.0000 C   0  0  0  0  0  0  0  0  0  0  0  0
    1.1000   -1.4437    0.0000 N   0  0  0  0  0  0  0  0  0  0  0  0
    2.9562   -4.2624    0.0000 O   0  0  0  0  0  0  0  0  0  0  0  0
    1.3234   -3.6437    0.0000 O   0  0  0  0  0  0  0  0  0  0  0  0
    6.4539   -4.1507    0.0000 C   0  0  0  0  0  0  0  0  0  0  0  0
    2.7070   -1.4867    0.0000 O   0  0  0  0  0  0  0  0  0  0  0  0
    0.2234   -2.8875    0.0000 C   0  0  0  0  0  0  0  0  0  0  0  0
    7.1671   -3.7211    0.0000 O   0  0  0  0  0  0  0  0  0  0  0  0
    8.5937   -3.7640    0.0000 O   0  0  0  0  0  0  0  0  0  0  0  0
    5.7578   -5.3367    0.0000 O   0  0  0  0  0  0  0  0  0  0  0  0
    0.6359   -4.1164    0.0000 C   0  0  0  0  0  0  0  0  0  0  0  0
    0.0000   -3.6437    0.0000 C   0  0  0  0  0  0  0  0  0  0  0  0
    7.8804   -4.9929    0.0000 N   0  0  0  0  0  0  0  0  0  0  0  0
    4.3141   -5.3367    0.0000 O   0  0  0  0  0  0  0  0  0  0  0  0
    0.7562   -0.6875    0.0000 O   0  0  0  0  0  0  0  0  0  0  0  0
    1.1945    0.0000    0.0000 C   0  0  0  0  0  0  0  0  0  0  0  0
  1  2  1  0
  1  4  1  0
  1  5  1  0
  2 16  2  0
  2  3  1  0
  3  4  1  0
  3  6  1  1
  4  9  1  1
  5 10  2  0
  5 12  1  0
  6  7  1  0
  7  8  1  0
  7 19  2  0
  8 11  1  0
  8 15  2  3
  9 14  1  0
 10 14  1  0
 10 18  1  0
 11 17  1  0
 11 20  2  0
 12 23  2  0
 12 27  1  0
 13 21  1  0
 13 22  2  0
 13 26  1  0
 15 28  1  0
 17 24  1  0
 18 21  1  0
 20 25  1  0
 24 25  2  0
 28 29  1  0
M  END
>  <Formula>  (235) 
C16H16N4O8S

>  <FW>  (235) 
424.3852

>  <DSSTox_CID>  (235) 
2774

>  <NR-Aromatase>  (235) 
0

>  <NR-AR>  (235) 
0

>  <NR-AR-LBD>  (235) 
0

>  <NR-ER>  (235) 
1

>  <NR-ER-LBD>  (235) 
1

>  <NR-PPAR-gamma>  (235) 
0

>  <NR-AhR>  (235) 
0

>  <SR-ATAD5>  (235) 
0

>  <SR-MMP>  (235) 
0

>  <SR-p53>  (235) 
0

$$$$
NCGC00254050-01
     RDKit          2D

 41 45  0  0  1  0  0  0  0  0999 V2000
   10.0609   -2.3341    0.0000 C   0  0  0  0  0  0  0  0  0  0  0  0
    9.5075   -2.9478    0.0000 C   0  0  0  0  0  0  0  0  0  0  0  0
    9.6786   -3.7628    0.0000 O   0  0  0  0  0  0  0  0  0  0  0  0
    8.9643   -4.1752    0.0000 C   0  0  0  0  0  0  0  0  0  0  0  0
    8.3606   -3.6219    0.0000 N   0  0  0  0  0  0  0  0  0  0  0  0
    8.6826   -2.8573    0.0000 C   0  0  0  0  0  0  0  0  0  0  0  0
    8.2801   -2.1530    0.0000 C   0  0  0  0  0  0  0  0  0  0  0  0
    7.4451   -2.1530    0.0000 C   0  0  0  0  0  0  0  0  0  0  0  0
    7.0326   -1.4387    0.0000 O   0  0  0  0  0  0  0  0  0  0  0  0
    6.1975   -1.4387    0.0000 C   0  0  0  0  0  0  0  0  0  0  0  0
    5.7951   -2.1530    0.0000 C   0  0  0  0  0  0  0  0  0  0  0  0
    4.9701   -2.1530    0.0000 C   0  0  0  0  0  0  0  0  0  0  0  0
    4.5475   -1.4387    0.0000 C   0  0  0  0  0  0  0  0  0  0  0  0
    3.7225   -1.4387    0.0000 C   0  0  0  0  0  0  0  0  0  0  0  0
    3.3100   -2.1530    0.0000 C   0  0  0  0  0  0  0  0  0  0  0  0
    2.4850   -2.1530    0.0000 N   0  0  0  0  0  0  0  0  0  0  0  0
    2.0625   -2.8573    0.0000 C   0  0  0  0  0  0  0  0  0  0  0  0
    2.4850   -3.5817    0.0000 C   0  0  0  0  0  0  0  0  0  0  0  0
    2.0625   -4.2960    0.0000 C   0  0  0  0  0  0  0  0  0  0  0  0
    1.2375   -4.2960    0.0000 C   0  0  0  0  0  0  0  0  0  0  0  0
    0.8250   -3.5817    0.0000 C   0  0  0  0  0  0  0  0  0  0  0  0
    1.2375   -2.8573    0.0000 C   0  0  0  0  0  0  0  0  0  0  0  0
    0.8250   -2.1530    0.0000 C   0  0  0  0  0  0  0  0  0  0  0  0
    0.0000   -2.1530    0.0000 O   0  0  0  0  0  0  0  0  0  0  0  0
    1.2375   -1.4387    0.0000 C   0  0  0  0  0  0  0  0  0  0  0  0
    0.8250   -0.7143    0.0000 C   0  0  0  0  0  0  0  0  0  0  0  0
    1.2375    0.0000    0.0000 C   0  0  0  0  0  0  0  0  0  0  0  0
    2.0625    0.0000    0.0000 C   0  0  0  0  0  0  0  0  0  0  0  0
    2.4850   -0.7143    0.0000 C   0  0  0  0  0  0  0  0  0  0  0  0
    2.0625   -1.4387    0.0000 C   0  0  0  0  0  0  0  0  0  0  0  0
    3.7225   -2.8573    0.0000 C   0  0  0  0  0  0  0  0  0  0  0  0
    3.3100   -3.5817    0.0000 O   0  0  0  0  0  0  0  0  0  0  0  0
    4.5475   -2.8573    0.0000 O   0  0  0  0  0  0  0  0  0  0  0  0
    4.9701   -0.7143    0.0000 C   0  0  0  0  0  0  0  0  0  0  0  0
    5.7951   -0.7143    0.0000 C   0  0  0  0  0  0  0  0  0  0  0  0
    8.8838   -4.9902    0.0000 C   0  0  0  0  0  0  0  0  0  0  0  0
    9.5478   -5.4832    0.0000 C   0  0  0  0  0  0  0  0  0  0  0  0
    9.4673   -6.3082    0.0000 C   0  0  0  0  0  0  0  0  0  0  0  0
    8.7027   -6.6402    0.0000 C   0  0  0  0  0  0  0  0  0  0  0  0
    8.0387   -6.1573    0.0000 C   0  0  0  0  0  0  0  0  0  0  0  0
    8.1292   -5.3323    0.0000 C   0  0  0  0  0  0  0  0  0  0  0  0
  1  2  1  0
  2  3  1  0
  2  6  2  0
  3  4  1  0
  4  5  2  0
  4 36  1  0
  5  6  1  0
  6  7  1  0
  7  8  1  0
  8  9  1  0
  9 10  1  0
 10 11  2  0
 10 35  1  0
 11 12  1  0
 12 13  2  0
 13 14  1  0
 13 34  1  0
 15 14  1  1
 15 16  1  0
 15 31  1  0
 16 17  1  0
 17 18  2  0
 17 22  1  0
 18 19  1  0
 19 20  2  0
 20 21  1  0
 21 22  2  0
 22 23  1  0
 23 24  2  0
 23 25  1  0
 25 26  2  0
 25 30  1  0
 26 27  1  0
 27 28  2  0
 28 29  1  0
 29 30  2  0
 31 32  2  0
 31 33  1  0
 34 35  2  0
 36 37  2  0
 36 41  1  0
 37 38  1  0
 38 39  2  0
 39 40  1  0
 40 41  2  0
M  END
>  <Formula>  (236) 
C34H30N2O5

>  <FW>  (236) 
546.6124

>  <DSSTox_CID>  (236) 
27310

>  <NR-AR>  (236) 
0

>  <NR-ER-LBD>  (236) 
0

>  <NR-PPAR-gamma>  (236) 
1

>  <NR-AhR>  (236) 
0

$$$$
NCGC00164545-01
     RDKit          2D

 33 34  0  0  0  0  0  0  0  0999 V2000
    2.8589   -3.5607    0.0000 C   0  0  0  0  0  0  0  0  0  0  0  0
    2.8589   -4.3824    0.0000 C   0  0  0  0  0  0  0  0  0  0  0  0
    3.5778   -4.8018    0.0000 N   0  0  0  0  0  0  0  0  0  0  0  0
    4.2797   -4.3824    0.0000 C   0  0  0  0  0  0  0  0  0  0  0  0
    4.2797   -3.5607    0.0000 C   0  0  0  0  0  0  0  0  0  0  0  0
    3.5778   -3.1413    0.0000 C   0  0  0  0  0  0  0  0  0  0  0  0
    4.9816   -3.1413    0.0000 C   0  0  0  0  0  0  0  0  0  0  0  0
    5.7005   -3.5521    0.0000 O   0  0  0  0  0  0  0  0  0  0  0  0
    4.9816   -2.3282    0.0000 O   0  0  0  0  0  0  0  0  0  0  0  0
    6.4024   -3.1413    0.0000 C   0  0  0  0  0  0  0  0  0  0  0  0
    7.1214   -3.5521    0.0000 C   0  0  0  0  0  0  0  0  0  0  0  0
    4.9816   -4.8018    0.0000 C   0  0  0  0  0  0  0  0  0  0  0  0
    2.1484   -3.1413    0.0000 C   0  0  0  0  0  0  0  0  0  0  0  0
    1.4294   -3.5521    0.0000 O   0  0  0  0  0  0  0  0  0  0  0  0
    2.1484   -2.3367    0.0000 O   0  0  0  0  0  0  0  0  0  0  0  0
    0.7275   -3.1413    0.0000 C   0  0  0  0  0  0  0  0  0  0  0  0
    0.0000   -3.5521    0.0000 C   0  0  0  0  0  0  0  0  0  0  0  0
    2.1484   -4.8018    0.0000 C   0  0  0  0  0  0  0  0  0  0  0  0
    2.8503   -0.4109    0.0000 C   0  0  0  0  0  0  0  0  0  0  0  0
    2.8503   -1.2582    0.0000 C   0  0  0  0  0  0  0  0  0  0  0  0
    3.5778   -1.6862    0.0000 C   0  0  0  0  0  0  0  0  0  0  0  0
    4.2968   -1.2582    0.0000 C   0  0  0  0  0  0  0  0  0  0  0  0
    4.2968   -0.4109    0.0000 C   0  0  0  0  0  0  0  0  0  0  0  0
    3.5778    0.0000    0.0000 C   0  0  0  0  0  0  0  0  0  0  0  0
    4.9987   -1.6776    0.0000 C   0  0  0  0  0  0  0  0  0  0  0  0
    5.7091   -1.2582    0.0000 C   0  0  0  0  0  0  0  0  0  0  0  0
    6.4110   -1.6776    0.0000 C   0  0  0  0  0  0  0  0  0  0  0  0
    7.1300   -1.2496    0.0000 O   0  0  0  0  0  0  0  0  0  0  0  0
    6.4110   -2.4908    0.0000 O   0  0  0  0  0  0  0  0  0  0  0  0
    7.8404   -1.6605    0.0000 C   0  0  0  0  0  0  0  0  0  0  0  0
    7.4467   -2.3624    0.0000 C   0  0  0  0  0  0  0  0  0  0  0  0
    8.5594   -2.0628    0.0000 C   0  0  0  0  0  0  0  0  0  0  0  0
    8.2512   -0.9501    0.0000 C   0  0  0  0  0  0  0  0  0  0  0  0
  1  6  1  0
  1 13  1  0
  1  2  2  0
  2 18  1  0
  2  3  1  0
  3  4  1  0
  4  5  2  0
  4 12  1  0
  5  6  1  0
  5  7  1  0
  6 21  1  0
  7  8  1  0
  7  9  2  0
  8 10  1  0
 10 11  1  0
 13 14  1  0
 13 15  2  0
 14 16  1  0
 16 17  1  0
 19 20  2  0
 19 24  1  0
 20 21  1  0
 21 22  2  0
 22 23  1  0
 22 25  1  0
 23 24  2  0
 25 26  2  0
 26 27  1  0
 27 28  1  0
 27 29  2  0
 28 30  1  0
 30 31  1  0
 30 32  1  0
 30 33  1  0
M  END
>  <Formula>  (237) 
C26H33NO6

>  <FW>  (237) 
455.5433

>  <DSSTox_CID>  (237) 
26429

>  <NR-Aromatase>  (237) 
1

>  <NR-AR>  (237) 
0

>  <NR-ER-LBD>  (237) 
1

>  <NR-PPAR-gamma>  (237) 
1

>  <NR-AhR>  (237) 
1

>  <SR-p53>  (237) 
1

$$$$
NCGC00167566-01
     RDKit          2D

 35 39  0  0  0  0  0  0  0  0999 V2000
    2.8773   -2.8974    0.0000 C   0  0  0  0  0  0  0  0  0  0  0  0
    2.1630   -2.4949    0.0000 C   0  0  0  0  0  0  0  0  0  0  0  0
    2.8773   -3.7223    0.0000 C   0  0  0  0  0  0  0  0  0  0  0  0
    3.6016   -2.4849    0.0000 C   0  0  0  0  0  0  0  0  0  0  0  0
    2.1630   -4.1449    0.0000 O   0  0  0  0  0  0  0  0  0  0  0  0
    1.4286   -2.8974    0.0000 C   0  0  0  0  0  0  0  0  0  0  0  0
    1.4286   -3.7223    0.0000 C   0  0  0  0  0  0  0  0  0  0  0  0
    4.3058   -2.8873    0.0000 C   0  0  0  0  0  0  0  0  0  0  0  0
    3.6016   -4.1549    0.0000 O   0  0  0  0  0  0  0  0  0  0  0  0
    5.0302   -2.4849    0.0000 C   0  0  0  0  0  0  0  0  0  0  0  0
    3.6016   -1.6600    0.0000 C   0  0  0  0  0  0  0  0  0  0  0  0
    5.7545   -2.8873    0.0000 C   0  0  0  0  0  0  0  0  0  0  0  0
    7.1830   -3.7123    0.0000 C   0  0  0  0  0  0  0  0  0  0  0  0
    7.8973   -4.1348    0.0000 C   0  0  0  0  0  0  0  0  0  0  0  0
    2.1630   -1.6600    0.0000 O   0  0  0  0  0  0  0  0  0  0  0  0
    5.7545   -3.7123    0.0000 C   0  0  0  0  0  0  0  0  0  0  0  0
    6.4587   -2.4849    0.0000 C   0  0  0  0  0  0  0  0  0  0  0  0
    7.1830   -2.8873    0.0000 C   0  0  0  0  0  0  0  0  0  0  0  0
    6.4587   -4.1348    0.0000 C   0  0  0  0  0  0  0  0  0  0  0  0
    8.6318   -3.7123    0.0000 C   0  0  0  0  0  0  0  0  0  0  0  0
    7.8973   -4.9597    0.0000 C   0  0  0  0  0  0  0  0  0  0  0  0
    9.3360   -4.9597    0.0000 C   0  0  0  0  0  0  0  0  0  0  0  0
    8.6318   -5.3722    0.0000 C   0  0  0  0  0  0  0  0  0  0  0  0
    9.3360   -4.1348    0.0000 C   0  0  0  0  0  0  0  0  0  0  0  0
    5.0302   -1.6499    0.0000 O   0  0  0  0  0  0  0  0  0  0  0  0
   10.0603   -5.3823    0.0000 Br  0  0  0  0  0  0  0  0  0  0  0  0
    0.7243   -2.4949    0.0000 C   0  0  0  0  0  0  0  0  0  0  0  0
    0.7243   -4.1449    0.0000 C   0  0  0  0  0  0  0  0  0  0  0  0
    4.3058   -1.2475    0.0000 C   0  0  0  0  0  0  0  0  0  0  0  0
    2.8773   -1.2475    0.0000 C   0  0  0  0  0  0  0  0  0  0  0  0
    0.0000   -2.8974    0.0000 C   0  0  0  0  0  0  0  0  0  0  0  0
    0.0000   -3.7223    0.0000 C   0  0  0  0  0  0  0  0  0  0  0  0
    2.8773   -0.4125    0.0000 C   0  0  0  0  0  0  0  0  0  0  0  0
    4.3058   -0.4125    0.0000 C   0  0  0  0  0  0  0  0  0  0  0  0
    3.6016    0.0000    0.0000 C   0  0  0  0  0  0  0  0  0  0  0  0
  1  2  2  0
  1  3  1  0
  1  4  1  0
  2  6  1  0
  2 15  1  0
  3  5  1  0
  3  9  2  0
  4  8  1  0
  4 11  1  0
  5  7  1  0
  6 27  2  0
  6  7  1  0
  7 28  2  0
  8 10  1  0
 10 12  1  0
 10 25  1  0
 11 29  2  0
 11 30  1  0
 12 16  2  0
 12 17  1  0
 13 18  1  0
 13 14  1  0
 13 19  2  0
 14 20  2  0
 14 21  1  0
 16 19  1  0
 17 18  2  0
 20 24  1  0
 21 23  2  0
 22 23  1  0
 22 26  1  0
 22 24  2  0
 27 31  1  0
 28 32  1  0
 29 34  1  0
 30 33  2  0
 31 32  2  0
 33 35  1  0
 34 35  2  0
M  END
>  <Formula>  (238) 
C30H23BrO4

>  <FW>  (238) 
527.4052

>  <DSSTox_CID>  (238) 
12589

>  <NR-Aromatase>  (238) 
0

>  <NR-AR>  (238) 
0

>  <NR-ER>  (238) 
0

>  <NR-ER-LBD>  (238) 
0

>  <NR-PPAR-gamma>  (238) 
1

>  <SR-MMP>  (238) 
1

$$$$
NCGC00165957-04
     RDKit          2D

 38 39  0  0  0  0  0  0  0  0999 V2000
    6.3413   -3.3128    0.0000 C   0  0  0  0  0  0  0  0  0  0  0  0
    5.6302   -2.8945    0.0000 C   0  0  0  0  0  0  0  0  0  0  0  0
    4.9274   -3.3128    0.0000 O   0  0  0  0  0  0  0  0  0  0  0  0
    4.2163   -2.0831    0.0000 O   0  0  0  0  0  0  0  0  0  0  0  0
    7.0272   -4.5259    0.0000 N   0  0  0  0  0  0  0  0  0  0  0  0
    6.3413   -4.1243    0.0000 C   0  0  0  0  0  0  0  0  0  0  0  0
    5.6302   -4.5259    0.0000 C   0  0  0  0  0  0  0  0  0  0  0  0
    4.9274   -4.1243    0.0000 O   0  0  0  0  0  0  0  0  0  0  0  0
    4.2163   -4.5259    0.0000 C   0  0  0  0  0  0  0  0  0  0  0  0
    0.0000   -2.8945    0.0000 C   0  0  0  0  0  0  0  0  0  0  0  0
    1.4138   -2.0831    0.0000 O   0  0  0  0  0  0  0  0  0  0  0  0
    0.7027   -3.3128    0.0000 O   0  0  0  0  0  0  0  0  0  0  0  0
    1.4138   -2.8945    0.0000 C   0  0  0  0  0  0  0  0  0  0  0  0
    4.2163   -2.8945    0.0000 C   0  0  0  0  0  0  0  0  0  0  0  0
    1.4138   -4.5259    0.0000 C   0  0  0  0  0  0  0  0  0  0  0  0
    4.2498   -1.6564    0.0000 Cl  0  0  0  0  0  0  0  0  0  0  0  0
    2.0998   -0.4099    0.0000 C   0  0  0  0  0  0  0  0  0  0  0  0
    2.0998   -1.2465    0.0000 C   0  0  0  0  0  0  0  0  0  0  0  0
    2.8193    0.0000    0.0000 C   0  0  0  0  0  0  0  0  0  0  0  0
    2.8193   -1.6564    0.0000 C   0  0  0  0  0  0  0  0  0  0  0  0
    3.5303   -0.4099    0.0000 C   0  0  0  0  0  0  0  0  0  0  0  0
    3.5303   -1.2465    0.0000 C   0  0  0  0  0  0  0  0  0  0  0  0
    3.5220   -3.3128    0.0000 C   0  0  0  0  0  0  0  0  0  0  0  0
    3.5220   -4.1243    0.0000 C   0  0  0  0  0  0  0  0  0  0  0  0
    2.8193   -2.8945    0.0000 C   0  0  0  0  0  0  0  0  0  0  0  0
    2.8193   -4.5259    0.0000 N   0  0  0  0  0  0  0  0  0  0  0  0
    2.1082   -3.3128    0.0000 C   0  0  0  0  0  0  0  0  0  0  0  0
    2.1082   -4.1243    0.0000 C   0  0  0  0  0  0  0  0  0  0  0  0
    5.7557   -0.9202    0.0000 S   0  0  0  0  0  0  0  0  0  0  0  0
    5.7557   -0.0502    0.0000 O   0  0  0  0  0  0  0  0  0  0  0  0
    5.7557   -1.7736    0.0000 O   0  0  0  0  0  0  0  0  0  0  0  0
    6.6257   -0.9202    0.0000 C   0  0  0  0  0  0  0  0  0  0  0  0
    4.8856   -0.9202    0.0000 O   0  0  0  0  0  0  0  0  0  0  0  0
    7.0607   -1.6564    0.0000 C   0  0  0  0  0  0  0  0  0  0  0  0
    7.0607   -0.1673    0.0000 C   0  0  0  0  0  0  0  0  0  0  0  0
    7.9307   -0.1673    0.0000 C   0  0  0  0  0  0  0  0  0  0  0  0
    7.9307   -1.6564    0.0000 C   0  0  0  0  0  0  0  0  0  0  0  0
    8.3658   -0.9202    0.0000 C   0  0  0  0  0  0  0  0  0  0  0  0
  1  2  1  0
  2  3  1  0
  3 14  1  0
  4 14  2  0
  5  6  1  0
  6  7  1  0
  7  8  1  0
  8  9  1  0
  9 24  1  0
 10 12  1  0
 11 13  2  0
 12 13  1  0
 13 27  1  0
 14 23  1  0
 15 28  1  0
 16 22  1  0
 17 18  2  0
 17 19  1  0
 18 20  1  0
 19 21  2  0
 20 22  2  0
 20 25  1  0
 21 22  1  0
 23 24  2  0
 23 25  1  0
 24 26  1  0
 25 27  1  0
 26 28  1  0
 27 28  2  0
 29 30  2  0
 29 31  2  0
 29 32  1  0
 29 33  1  0
 32 34  2  0
 32 35  1  0
 34 37  1  0
 35 36  2  0
 36 38  1  0
 37 38  2  0
M  END
>  <Formula>  (239) 
C26H31ClN2O8S

>  <FW>  (239) 
567.0509 (408.8759+158.1750)

>  <DSSTox_CID>  (239) 
23909

>  <NR-AR>  (239) 
0

>  <NR-AR-LBD>  (239) 
1

>  <NR-ER>  (239) 
0

>  <NR-PPAR-gamma>  (239) 
1

>  <SR-ATAD5>  (239) 
0

>  <SR-p53>  (239) 
1

$$$$
NCGC00254129-01
     RDKit          2D

 45 49  0  0  0  0  0  0  0  0999 V2000
    0.3323   -6.9206    0.0000 C   0  0  0  0  0  0  0  0  0  0  0  0
    0.5843   -7.6997    0.0000 C   0  0  0  0  0  0  0  0  0  0  0  0
    1.3979   -7.8716    0.0000 C   0  0  0  0  0  0  0  0  0  0  0  0
    1.9364   -7.2529    0.0000 C   0  0  0  0  0  0  0  0  0  0  0  0
    2.7499   -7.4247    0.0000 C   0  0  0  0  0  0  0  0  0  0  0  0
    3.2999   -6.8060    0.0000 S   0  0  0  0  0  0  0  0  0  0  0  0
    3.0478   -6.0268    0.0000 C   0  0  0  0  0  0  0  0  0  0  0  0
    3.5978   -5.4081    0.0000 C   0  0  0  0  0  0  0  0  0  0  0  0
    3.3343   -4.6176    0.0000 S   0  0  0  0  0  0  0  0  0  0  0  0
    4.0103   -4.1363    0.0000 C   0  0  0  0  0  0  0  0  0  0  0  0
    4.6748   -4.6176    0.0000 N   0  0  0  0  0  0  0  0  0  0  0  0
    4.4228   -5.4081    0.0000 C   0  0  0  0  0  0  0  0  0  0  0  0
    4.8353   -6.1185    0.0000 C   0  0  0  0  0  0  0  0  0  0  0  0
    5.6488   -6.1185    0.0000 N   0  0  0  0  0  0  0  0  0  0  0  0
    6.0727   -5.4081    0.0000 C   0  0  0  0  0  0  0  0  0  0  0  0
    6.8976   -5.4081    0.0000 C   0  0  0  0  0  0  0  0  0  0  0  0
    7.3101   -6.1185    0.0000 N   0  0  0  0  0  0  0  0  0  0  0  0
    6.8976   -6.8404    0.0000 C   0  0  0  0  0  0  0  0  0  0  0  0
    6.0727   -6.8404    0.0000 C   0  0  0  0  0  0  0  0  0  0  0  0
    8.1351   -6.1185    0.0000 C   0  0  0  0  0  0  0  0  0  0  0  0
    8.5476   -5.4081    0.0000 C   0  0  0  0  0  0  0  0  0  0  0  0
    9.3726   -5.4081    0.0000 C   0  0  0  0  0  0  0  0  0  0  0  0
    9.7851   -6.1185    0.0000 C   0  0  0  0  0  0  0  0  0  0  0  0
   10.6100   -6.1185    0.0000 O   0  0  0  0  0  0  0  0  0  0  0  0
   11.0225   -5.4081    0.0000 C   0  0  0  0  0  0  0  0  0  0  0  0
    9.3726   -6.8404    0.0000 C   0  0  0  0  0  0  0  0  0  0  0  0
    8.5476   -6.8404    0.0000 C   0  0  0  0  0  0  0  0  0  0  0  0
    4.0103   -3.2999    0.0000 C   0  0  0  0  0  0  0  0  0  0  0  0
    4.7206   -2.8989    0.0000 C   0  0  0  0  0  0  0  0  0  0  0  0
    4.7206   -2.0739    0.0000 C   0  0  0  0  0  0  0  0  0  0  0  0
    4.0103   -1.6499    0.0000 C   0  0  0  0  0  0  0  0  0  0  0  0
    3.2999   -2.0739    0.0000 C   0  0  0  0  0  0  0  0  0  0  0  0
    3.2999   -2.8989    0.0000 C   0  0  0  0  0  0  0  0  0  0  0  0
    4.0103   -0.8249    0.0000 C   0  0  0  0  0  0  0  0  0  0  0  0
    3.1853   -0.8249    0.0000 F   0  0  0  0  0  0  0  0  0  0  0  0
    4.8353   -0.8249    0.0000 F   0  0  0  0  0  0  0  0  0  0  0  0
    4.0103    0.0000    0.0000 F   0  0  0  0  0  0  0  0  0  0  0  0
    3.0020   -8.2038    0.0000 C   0  0  0  0  0  0  0  0  0  0  0  0
    2.4635   -8.8226    0.0000 C   0  0  0  0  0  0  0  0  0  0  0  0
    1.6499   -8.6507    0.0000 C   0  0  0  0  0  0  0  0  0  0  0  0
    1.1000   -9.2694    0.0000 O   0  0  0  0  0  0  0  0  0  0  0  0
    1.3635  -10.0486    0.0000 C   0  0  0  0  0  0  0  0  0  0  0  0
    0.8020  -10.6673    0.0000 C   0  0  0  0  0  0  0  0  0  0  0  0
    0.0000  -10.5069    0.0000 O   0  0  0  0  0  0  0  0  0  0  0  0
    1.0656  -11.4579    0.0000 O   0  0  0  0  0  0  0  0  0  0  0  0
  1  2  1  0
  2  3  1  0
  3  4  2  0
  3 40  1  0
  4  5  1  0
  5  6  1  0
  5 38  2  0
  6  7  1  0
  7  8  1  0
  8  9  1  0
  8 12  2  0
  9 10  1  0
 10 11  2  0
 10 28  1  0
 11 12  1  0
 12 13  1  0
 13 14  1  0
 14 15  1  0
 14 19  1  0
 15 16  1  0
 16 17  1  0
 17 18  1  0
 17 20  1  0
 18 19  1  0
 20 21  2  0
 20 27  1  0
 21 22  1  0
 22 23  2  0
 23 24  1  0
 23 26  1  0
 24 25  1  0
 26 27  2  0
 28 29  2  0
 28 33  1  0
 29 30  1  0
 30 31  2  0
 31 32  1  0
 31 34  1  0
 32 33  2  0
 34 35  1  0
 34 36  1  0
 34 37  1  0
 38 39  1  0
 39 40  2  0
 40 41  1  0
 41 42  1  0
 42 43  1  0
 43 44  2  0
 43 45  1  0
M  END
>  <Formula>  (240) 
C33H34F3N3O4S2

>  <FW>  (240) 
657.7660

>  <DSSTox_CID>  (240) 
27315

>  <NR-AR>  (240) 
0

>  <NR-AR-LBD>  (240) 
0

>  <NR-ER-LBD>  (240) 
1

>  <NR-PPAR-gamma>  (240) 
1

>  <NR-AhR>  (240) 
0

>  <SR-MMP>  (240) 
1

$$$$
NCGC00255075-01
     RDKit          2D

 29 30  0  0  0  0  0  0  0  0999 V2000
    2.8538   -2.3591    0.0000 N   0  0  0  0  0  0  0  0  0  0  0  0
    2.1385   -2.7777    0.0000 C   0  0  0  0  0  0  0  0  0  0  0  0
    2.8538   -1.5449    0.0000 C   0  0  0  0  0  0  0  0  0  0  0  0
    2.1385   -1.1339    0.0000 C   0  0  0  0  0  0  0  0  0  0  0  0
    1.4231   -2.3591    0.0000 C   0  0  0  0  0  0  0  0  0  0  0  0
    1.4231   -1.5449    0.0000 C   0  0  0  0  0  0  0  0  0  0  0  0
    3.5539   -1.1339    0.0000 N   0  0  0  0  0  0  0  0  0  0  0  0
    2.1385   -0.3120    0.0000 Cl  0  0  0  0  0  0  0  0  0  0  0  0
    4.7564   -1.6438    0.0000 C   0  0  0  0  0  0  0  0  0  0  0  0
    5.4717   -1.2328    0.0000 C   0  0  0  0  0  0  0  0  0  0  0  0
    4.7564   -2.4581    0.0000 C   0  0  0  0  0  0  0  0  0  0  0  0
    6.1871   -1.6438    0.0000 C   0  0  0  0  0  0  0  0  0  0  0  0
    5.4717   -2.8767    0.0000 C   0  0  0  0  0  0  0  0  0  0  0  0
    6.1871   -2.4581    0.0000 C   0  0  0  0  0  0  0  0  0  0  0  0
    6.8948   -1.2328    0.0000 Cl  0  0  0  0  0  0  0  0  0  0  0  0
    5.4717   -0.4110    0.0000 N   0  0  0  0  0  0  0  0  0  0  0  0
    4.7564    0.0000    0.0000 O   0  0  0  0  0  0  0  0  0  0  0  0
    6.1871    0.0000    0.0000 O   0  0  0  0  0  0  0  0  0  0  0  0
    4.0486   -2.8767    0.0000 N   0  0  0  0  0  0  0  0  0  0  0  0
    4.0486   -3.6985    0.0000 O   0  0  0  0  0  0  0  0  0  0  0  0
    3.3941   -2.4505    0.0000 O   0  0  0  0  0  0  0  0  0  0  0  0
    6.8948   -2.8767    0.0000 C   0  0  0  0  0  0  0  0  0  0  0  0
    6.4839   -3.5920    0.0000 F   0  0  0  0  0  0  0  0  0  0  0  0
    7.3058   -2.1613    0.0000 F   0  0  0  0  0  0  0  0  0  0  0  0
    7.6102   -3.2800    0.0000 F   0  0  0  0  0  0  0  0  0  0  0  0
    0.7154   -2.7777    0.0000 C   0  0  0  0  0  0  0  0  0  0  0  0
    0.2968   -2.0624    0.0000 F   0  0  0  0  0  0  0  0  0  0  0  0
    1.1187   -3.4931    0.0000 F   0  0  0  0  0  0  0  0  0  0  0  0
    0.0000   -3.1811    0.0000 F   0  0  0  0  0  0  0  0  0  0  0  0
  1  2  2  0
  1  3  1  0
  2  5  1  0
  3  4  2  0
  3  7  1  0
  4  6  1  0
  4  8  1  0
  5  6  2  0
  5 26  1  0
  7  9  1  0
  9 10  2  0
  9 11  1  0
 10 12  1  0
 10 16  1  0
 11 13  2  0
 11 19  1  0
 12 14  2  0
 12 15  1  0
 13 14  1  0
 14 22  1  0
 16 17  1  0
 16 18  2  0
 19 20  1  0
 19 21  2  0
 22 23  1  0
 22 24  1  0
 22 25  1  0
 26 27  1  0
 26 28  1  0
 26 29  1  0
M  CHG  4  16   1  17  -1  19   1  20  -1
M  END
>  <Formula>  (241) 
C13H4Cl2F6N4O4

>  <FW>  (241) 
465.0917

>  <DSSTox_CID>  (241) 
12551

>  <NR-Aromatase>  (241) 
1

>  <NR-AR>  (241) 
0

>  <NR-ER-LBD>  (241) 
1

>  <NR-PPAR-gamma>  (241) 
1

>  <NR-AhR>  (241) 
1

>  <SR-ATAD5>  (241) 
0

>  <SR-HSE>  (241) 
1

>  <SR-p53>  (241) 
1

$$$$
NCGC00016576-01
     RDKit          2D

114123  0  0  0  0  0  0  0  0999 V2000
    4.9525   -5.8300    0.0000 C   0  0  0  0  0  0  0  0  0  0  0  0
    5.6218   -6.2167    0.0000 C   0  0  0  0  0  0  0  0  0  0  0  0
    4.9525  -12.3292    0.0000 C   0  0  0  0  0  0  0  0  0  0  0  0
    4.2089   -6.2167    0.0000 C   0  0  0  0  0  0  0  0  0  0  0  0
    6.3654   -5.8300    0.0000 N   0  0  0  0  0  0  0  0  0  0  0  0
    2.7960   -7.0495    0.0000 C   0  0  0  0  0  0  0  0  0  0  0  0
    6.3654  -10.6932    0.0000 C   0  0  0  0  0  0  0  0  0  0  0  0
    5.6218  -11.9128    0.0000 C   0  0  0  0  0  0  0  0  0  0  0  0
    5.6218   -7.0495    0.0000 C   0  0  0  0  0  0  0  0  0  0  0  0
    4.9525   -6.7520    0.0000 N   0  0  0  0  0  0  0  0  0  0  0  0
    4.2089   -7.0495    0.0000 N   0  0  0  0  0  0  0  0  0  0  0  0
    5.6218  -11.0800    0.0000 N   0  0  0  0  0  0  0  0  0  0  0  0
    6.3654   -8.2690    0.0000 C   0  0  0  0  0  0  0  0  0  0  0  0
    7.6890   -3.3463    0.0000 C   0  0  0  0  0  0  0  0  0  0  0  0
    6.3654   -7.4065    0.0000 N   0  0  0  0  0  0  0  0  0  0  0  0
   10.5742   -9.8604    0.0000 C   0  0  0  0  0  0  0  0  0  0  0  0
    4.2089  -11.9128    0.0000 N   0  0  0  0  0  0  0  0  0  0  0  0
    7.0495   -8.6260    0.0000 C   0  0  0  0  0  0  0  0  0  0  0  0
    7.0495   -3.7330    0.0000 N   0  0  0  0  0  0  0  0  0  0  0  0
    7.0495   -9.4737    0.0000 N   0  0  0  0  0  0  0  0  0  0  0  0
    2.0970   -8.2690    0.0000 N   0  0  0  0  0  0  0  0  0  0  0  0
    1.3682  -11.9128    0.0000 N   0  0  0  0  0  0  0  0  0  0  0  0
    9.8455   -9.4737    0.0000 N   0  0  0  0  0  0  0  0  0  0  0  0
    1.3682   -8.6260    0.0000 C   0  0  0  0  0  0  0  0  0  0  0  0
    1.3682   -9.4737    0.0000 C   0  0  0  0  0  0  0  0  0  0  0  0
    1.3682  -11.0800    0.0000 C   0  0  0  0  0  0  0  0  0  0  0  0
   12.7159   -9.4737    0.0000 N   0  0  0  0  0  0  0  0  0  0  0  0
    6.3654   -9.8604    0.0000 C   0  0  0  0  0  0  0  0  0  0  0  0
    2.0970   -7.4065    0.0000 C   0  0  0  0  0  0  0  0  0  0  0  0
    7.0495   -4.6105    0.0000 C   0  0  0  0  0  0  0  0  0  0  0  0
   10.5742  -10.6932    0.0000 C   0  0  0  0  0  0  0  0  0  0  0  0
   11.9871   -8.2839    0.0000 C   0  0  0  0  0  0  0  0  0  0  0  0
    0.6841   -9.8604    0.0000 N   0  0  0  0  0  0  0  0  0  0  0  0
    3.5247  -12.3292    0.0000 C   0  0  0  0  0  0  0  0  0  0  0  0
   10.5742   -5.8300    0.0000 N   0  0  0  0  0  0  0  0  0  0  0  0
    2.7960  -11.9128    0.0000 C   0  0  0  0  0  0  0  0  0  0  0  0
    4.9525  -13.1621    0.0000 C   0  0  0  0  0  0  0  0  0  0  0  0
   11.9871   -7.4065    0.0000 N   0  0  0  0  0  0  0  0  0  0  0  0
    9.1465   -5.8300    0.0000 C   0  0  0  0  0  0  0  0  0  0  0  0
    7.0495   -6.2167    0.0000 C   0  0  0  0  0  0  0  0  0  0  0  0
    8.4177   -6.2167    0.0000 N   0  0  0  0  0  0  0  0  0  0  0  0
    9.1465   -9.8604    0.0000 C   0  0  0  0  0  0  0  0  0  0  0  0
    7.6890   -2.4986    0.0000 C   0  0  0  0  0  0  0  0  0  0  0  0
    8.4177   -9.4737    0.0000 C   0  0  0  0  0  0  0  0  0  0  0  0
    0.6841  -10.6932    0.0000 C   0  0  0  0  0  0  0  0  0  0  0  0
    9.8455   -6.2167    0.0000 C   0  0  0  0  0  0  0  0  0  0  0  0
   11.3030   -6.2167    0.0000 C   0  0  0  0  0  0  0  0  0  0  0  0
    6.3654   -4.9971    0.0000 C   0  0  0  0  0  0  0  0  0  0  0  0
   11.3030   -9.4737    0.0000 C   0  0  0  0  0  0  0  0  0  0  0  0
    8.4177   -8.6260    0.0000 O   0  0  0  0  0  0  0  0  0  0  0  0
    9.8455  -11.0800    0.0000 C   0  0  0  0  0  0  0  0  0  0  0  0
    3.5247   -5.8300    0.0000 S   0  0  0  0  0  0  0  0  0  0  0  0
    7.0495  -11.9128    0.0000 S   0  0  0  0  0  0  0  0  0  0  0  0
    4.9525   -8.2690    0.0000 S   0  0  0  0  0  0  0  0  0  0  0  0
   11.9871   -9.8604    0.0000 C   0  0  0  0  0  0  0  0  0  0  0  0
   12.7159   -8.6260    0.0000 C   0  0  0  0  0  0  0  0  0  0  0  0
    7.6890   -0.8477    0.0000 C   0  0  0  0  0  0  0  0  0  0  0  0
    8.4177   -4.6105    0.0000 S   0  0  0  0  0  0  0  0  0  0  0  0
   11.3030  -11.0800    0.0000 C   0  0  0  0  0  0  0  0  0  0  0  0
    7.0495   -1.2344    0.0000 C   0  0  0  0  0  0  0  0  0  0  0  0
    2.0970  -10.6932    0.0000 S   0  0  0  0  0  0  0  0  0  0  0  0
    7.0495   -2.0821    0.0000 N   0  0  0  0  0  0  0  0  0  0  0  0
    2.7960   -6.2167    0.0000 C   0  0  0  0  0  0  0  0  0  0  0  0
    7.0495  -11.0800    0.0000 C   0  0  0  0  0  0  0  0  0  0  0  0
    8.4177   -1.2344    0.0000 N   0  0  0  0  0  0  0  0  0  0  0  0
    8.4177   -3.7330    0.0000 C   0  0  0  0  0  0  0  0  0  0  0  0
    4.9525   -7.4065    0.0000 C   0  0  0  0  0  0  0  0  0  0  0  0
    9.1465   -0.8477    0.0000 C   0  0  0  0  0  0  0  0  0  0  0  0
    9.1465  -10.6932    0.0000 C   0  0  0  0  0  0  0  0  0  0  0  0
    7.6890   -8.2690    0.0000 C   0  0  0  0  0  0  0  0  0  0  0  0
   11.9871  -10.6932    0.0000 C   0  0  0  0  0  0  0  0  0  0  0  0
    4.9525   -4.9971    0.0000 C   0  0  0  0  0  0  0  0  0  0  0  0
    9.8455   -1.2344    0.0000 C   0  0  0  0  0  0  0  0  0  0  0  0
    7.6890   -5.8300    0.0000 C   0  0  0  0  0  0  0  0  0  0  0  0
   11.3030   -7.0495    0.0000 C   0  0  0  0  0  0  0  0  0  0  0  0
    2.7960  -11.0800    0.0000 C   0  0  0  0  0  0  0  0  0  0  0  0
    2.0970   -9.8604    0.0000 O   0  0  0  0  0  0  0  0  0  0  0  0
   11.3328   -8.2839    0.0000 O   0  0  0  0  0  0  0  0  0  0  0  0
    5.6218   -4.6105    0.0000 C   0  0  0  0  0  0  0  0  0  0  0  0
    1.3682   -7.0495    0.0000 O   0  0  0  0  0  0  0  0  0  0  0  0
    5.6218   -9.4737    0.0000 O   0  0  0  0  0  0  0  0  0  0  0  0
    3.5247  -13.1621    0.0000 O   0  0  0  0  0  0  0  0  0  0  0  0
    9.1465   -4.9971    0.0000 O   0  0  0  0  0  0  0  0  0  0  0  0
    7.0495   -7.0495    0.0000 O   0  0  0  0  0  0  0  0  0  0  0  0
    7.6890   -9.8604    0.0000 O   0  0  0  0  0  0  0  0  0  0  0  0
   11.9871   -5.8300    0.0000 O   0  0  0  0  0  0  0  0  0  0  0  0
    8.4177   -2.0821    0.0000 O   0  0  0  0  0  0  0  0  0  0  0  0
    7.6890    0.0000    0.0000 O   0  0  0  0  0  0  0  0  0  0  0  0
    0.0000  -11.0800    0.0000 C   0  0  0  0  0  0  0  0  0  0  0  0
    9.8455   -2.0821    0.0000 O   0  0  0  0  0  0  0  0  0  0  0  0
    0.6841   -8.2690    0.0000 C   0  0  0  0  0  0  0  0  0  0  0  0
    9.8455   -7.0495    0.0000 C   0  0  0  0  0  0  0  0  0  0  0  0
    5.6218  -13.5339    0.0000 C   0  0  0  0  0  0  0  0  0  0  0  0
    6.3654   -0.8477    0.0000 C   0  0  0  0  0  0  0  0  0  0  0  0
    9.1465    0.0000    0.0000 C   0  0  0  0  0  0  0  0  0  0  0  0
    9.8455  -11.9128    0.0000 C   0  0  0  0  0  0  0  0  0  0  0  0
    4.2684  -12.7307    0.0000 O   0  0  0  0  0  0  0  0  0  0  0  0
   10.5742   -0.8477    0.0000 N   0  0  0  0  0  0  0  0  0  0  0  0
   13.4149   -8.1947    0.0000 C   0  0  0  0  0  0  0  0  0  0  0  0
   11.3030   -8.8193    0.0000 O   0  0  0  0  0  0  0  0  0  0  0  0
    4.2089  -13.5339    0.0000 C   0  0  0  0  0  0  0  0  0  0  0  0
    6.3654  -13.1621    0.0000 O   0  0  0  0  0  0  0  0  0  0  0  0
    0.0000   -8.6260    0.0000 O   0  0  0  0  0  0  0  0  0  0  0  0
   10.5742  -12.3292    0.0000 O   0  0  0  0  0  0  0  0  0  0  0  0
    7.6890   -7.4065    0.0000 C   0  0  0  0  0  0  0  0  0  0  0  0
    7.6890   -4.9971    0.0000 C   0  0  0  0  0  0  0  0  0  0  0  0
   10.7379   -7.6444    0.0000 C   0  0  0  0  0  0  0  0  0  0  0  0
    0.0000  -11.9128    0.0000 C   0  0  0  0  0  0  0  0  0  0  0  0
   14.1436   -8.6260    0.0000 C   0  0  0  0  0  0  0  0  0  0  0  0
    5.6218  -14.3816    0.0000 C   0  0  0  0  0  0  0  0  0  0  0  0
    0.6841   -7.4065    0.0000 C   0  0  0  0  0  0  0  0  0  0  0  0
    9.1465  -12.3292    0.0000 C   0  0  0  0  0  0  0  0  0  0  0  0
   13.4149   -7.4065    0.0000 C   0  0  0  0  0  0  0  0  0  0  0  0
   14.8724   -8.1947    0.0000 C   0  0  0  0  0  0  0  0  0  0  0  0
  1  2  1  0
  1  4  1  0
  1 10  1  0
  1 72  1  0
  2  5  1  0
  2  9  1  0
  3  8  1  0
  3 17  1  0
  3 37  1  0
  4 11  2  0
  4 52  1  0
  5 48  2  0
  6 11  1  0
  6 29  1  0
  6 63  2  0
  7 28  1  0
  7 12  1  0
  7 64  2  0
  8 12  2  0
  8 53  1  0
  9 15  1  0
  9 67  2  0
 10 40  1  0
 13 15  2  0
 13 18  1  0
 13 54  1  0
 14 19  1  0
 14 43  1  0
 14 66  2  0
 16 23  1  0
 16 49  1  0
 16 31  2  0
 17 34  1  0
 18 20  1  0
 18 70  1  0
 19 30  2  0
 20 28  1  0
 21 29  1  0
 21 24  1  0
 22 26  2  0
 22 36  1  0
 23 42  2  0
 24 25  1  0
 24 91  1  0
 25 33  1  0
 25 77  2  0
 26 45  1  0
 26 61  1  0
 27 56  1  0
 27 55  1  0
 28 81  2  0
 29 80  2  0
 30 48  1  0
 30 58  1  0
 31 51  1  0
 31 59  1  0
 32 38  1  0
 32 56  1  0
 32 78  2  0
 33 45  1  0
 34 36  1  0
 34 82  2  0
 35 46  1  0
 35 47  1  0
 36 76  1  0
 37 93  1  0
 37 97  1  0
 37101  1  0
 38 75  1  0
 39 41  1  0
 39 46  1  0
 39 83  2  0
 40 74  1  0
 40 84  2  0
 41 74  1  0
 42 44  1  0
 42 69  1  0
 43 62  1  0
 43 87  2  0
 44 50  1  0
 44 85  2  0
 45 89  2  0
 46 92  2  0
 47 75  1  0
 47 86  2  0
 48 79  1  0
 49 55  1  0
 49100  1  0
 50 70  1  0
 51 69  2  0
 51 96  1  0
 52 63  1  0
 53 64  1  0
 54 67  1  0
 55 71  1  0
 56 99  1  0
 57 60  1  0
 57 65  1  0
 57 88  2  0
 58 66  1  0
 59 71  2  0
 60 62  1  0
 60 94  2  0
 61 76  1  0
 65 68  1  0
 68 73  1  0
 68 95  2  0
 70105  1  0
 72 79  1  0
 73 90  2  0
 73 98  1  0
 74106  1  0
 75107  1  0
 89108  1  0
 91103  1  0
 91111  1  0
 93102  1  0
 93110  1  0
 96104  1  0
 96112  1  0
 99109  1  0
 99113  1  0
109114  1  0
M  END
>  <Formula>  (242) 
C72H85N19O18S5

>  <FW>  (242) 
1664.8868

>  <DSSTox_CID>  (242) 
20625

>  <NR-AR>  (242) 
0

>  <NR-AR-LBD>  (242) 
0

>  <NR-ER>  (242) 
0

>  <NR-PPAR-gamma>  (242) 
1

>  <NR-AhR>  (242) 
0

>  <SR-ATAD5>  (242) 
1

>  <SR-p53>  (242) 
1

$$$$
NCGC00064532-02
     RDKit          2D

 35 38  0  0  1  0  0  0  0  0999 V2000
    3.1350   -4.5336    0.0000 C   0  0  0  0  0  0  0  0  0  0  0  0
    3.1350   -3.7008    0.0000 C   0  0  0  0  0  0  0  0  0  0  0  0
    3.8500   -3.2922    0.0000 N   0  0  0  0  0  0  0  0  0  0  0  0
    3.8500   -4.9343    0.0000 C   0  0  0  0  0  0  0  0  0  0  0  0
    4.5650   -4.5336    0.0000 C   0  0  0  0  0  0  0  0  0  0  0  0
    4.5650   -3.7008    0.0000 C   0  0  0  0  0  0  0  0  0  0  0  0
    5.2721   -3.2922    0.0000 N   0  0  0  0  0  0  0  0  0  0  0  0
    5.9950   -3.7008    0.0000 C   0  0  0  0  0  0  0  0  0  0  0  0
    5.9950   -4.5336    0.0000 C   0  0  0  0  0  0  0  0  0  0  0  0
    5.2721   -4.9343    0.0000 C   0  0  0  0  0  0  0  0  0  0  0  0
    5.2721   -2.4672    0.0000 C   0  0  0  0  0  0  0  0  0  0  0  0
    4.5650   -2.0586    0.0000 C   0  0  0  0  0  0  0  0  0  0  0  0
    4.5650   -1.2257    0.0000 C   0  0  0  0  0  0  0  0  0  0  0  0
    5.2721   -0.8250    0.0000 C   0  0  0  0  0  0  0  0  0  0  0  0
    5.9950   -1.2257    0.0000 C   0  0  0  0  0  0  0  0  0  0  0  0
    5.9950   -2.0586    0.0000 C   0  0  0  0  0  0  0  0  0  0  0  0
    6.7022   -2.4672    0.0000 F   0  0  0  0  0  0  0  0  0  0  0  0
    5.2721    0.0000    0.0000 F   0  0  0  0  0  0  0  0  0  0  0  0
    5.2721   -5.7593    0.0000 O   0  0  0  0  0  0  0  0  0  0  0  0
    6.7022   -4.9343    0.0000 C   0  0  0  0  0  0  0  0  0  0  0  0
    7.4250   -4.5336    0.0000 O   0  0  0  0  0  0  0  0  0  0  0  0
    6.7022   -5.7593    0.0000 O   0  0  0  0  0  0  0  0  0  0  0  0
    2.4357   -4.9343    0.0000 F   0  0  0  0  0  0  0  0  0  0  0  0
    2.4357   -3.2922    0.0000 N   0  0  0  0  0  0  0  0  0  0  0  0
    1.6736   -3.6221    0.0000 C   0  0  0  0  0  0  0  0  0  0  0  0
    2.3336   -2.4750    0.0000 C   0  0  0  0  0  0  0  0  0  0  0  0
    1.5322   -2.2943    0.0000 C   0  0  0  0  0  0  0  0  0  0  0  0
    1.1314   -3.0171    0.0000 C   0  0  0  0  0  0  0  0  0  0  0  0
    0.7229   -2.2943    0.0000 C   0  0  0  0  0  0  0  0  0  0  0  0
    0.0000   -1.8936    0.0000 N   0  0  0  0  0  0  0  0  0  0  0  0
    3.1979   -6.9143    0.0000 S   0  0  0  0  0  0  0  0  0  0  0  0
    3.1979   -7.8571    0.0000 O   0  0  0  0  0  0  0  0  0  0  0  0
    4.0150   -6.9143    0.0000 O   0  0  0  0  0  0  0  0  0  0  0  0
    3.1979   -6.0972    0.0000 O   0  0  0  0  0  0  0  0  0  0  0  0
    2.3336   -6.9143    0.0000 C   0  0  0  0  0  0  0  0  0  0  0  0
  1  4  2  0
  1 23  1  0
  1  2  1  0
  2 24  1  0
  2  3  2  0
  3  6  1  0
  4  5  1  0
  5 10  1  0
  5  6  2  0
  6  7  1  0
  7  8  1  0
  7 11  1  0
  8  9  2  0
  9 20  1  0
  9 10  1  0
 10 19  2  0
 11 16  1  0
 11 12  2  0
 12 13  1  0
 13 14  2  0
 14 18  1  0
 14 15  1  0
 15 16  2  0
 16 17  1  0
 20 21  1  0
 20 22  2  0
 24 25  1  0
 24 26  1  0
 28 25  1  6
 27 26  1  6
 27 28  1  0
 27 29  1  0
 28 29  1  0
 29 30  1  1
 31 32  2  0
 31 33  1  0
 31 34  2  0
 31 35  1  0
M  END
>  <Formula>  (243) 
C21H19F3N4O6S

>  <FW>  (243) 
512.4590 (416.3533+96.1057)

>  <DSSTox_CID>  (243) 
25701

>  <NR-Aromatase>  (243) 
1

>  <NR-AR>  (243) 
0

>  <NR-AR-LBD>  (243) 
1

>  <NR-PPAR-gamma>  (243) 
1

>  <NR-AhR>  (243) 
0

>  <SR-ATAD5>  (243) 
0

>  <SR-p53>  (243) 
1

$$$$
NCGC00167729-01
     RDKit          2D

 28 31  0  0  0  0  0  0  0  0999 V2000
    2.2221   -2.2302    0.0000 N   0  0  0  0  0  0  0  0  0  0  0  0
    2.7024   -2.8977    0.0000 C   0  0  0  0  0  0  0  0  0  0  0  0
    4.7617   -3.5977    0.0000 C   0  0  0  0  0  0  0  0  0  0  0  0
    5.2501   -2.9384    0.0000 N   0  0  0  0  0  0  0  0  0  0  0  0
    3.5326   -2.8977    0.0000 C   0  0  0  0  0  0  0  0  0  0  0  0
    6.0396   -3.1989    0.0000 C   0  0  0  0  0  0  0  0  0  0  0  0
    3.9396   -3.5977    0.0000 N   0  0  0  0  0  0  0  0  0  0  0  0
    2.2221   -3.5489    0.0000 C   0  0  0  0  0  0  0  0  0  0  0  0
    1.4407   -2.4745    0.0000 C   0  0  0  0  0  0  0  0  0  0  0  0
    5.2501   -4.2815    0.0000 S   0  0  0  0  0  0  0  0  0  0  0  0
    1.4407   -3.3047    0.0000 C   0  0  0  0  0  0  0  0  0  0  0  0
    6.6989   -2.6943    0.0000 C   0  0  0  0  0  0  0  0  0  0  0  0
    6.0396   -4.0292    0.0000 C   0  0  0  0  0  0  0  0  0  0  0  0
    2.4826   -1.4326    0.0000 C   0  0  0  0  0  0  0  0  0  0  0  0
    2.0594   -0.7244    0.0000 C   0  0  0  0  0  0  0  0  0  0  0  0
    3.9396   -2.1733    0.0000 O   0  0  0  0  0  0  0  0  0  0  0  0
    6.6989   -1.8721    0.0000 C   0  0  0  0  0  0  0  0  0  0  0  0
    2.4826    0.0000    0.0000 O   0  0  0  0  0  0  0  0  0  0  0  0
    5.9827   -1.4733    0.0000 Cl  0  0  0  0  0  0  0  0  0  0  0  0
    1.2372   -0.7244    0.0000 O   0  0  0  0  0  0  0  0  0  0  0  0
    0.7082   -2.0756    0.0000 C   0  0  0  0  0  0  0  0  0  0  0  0
    7.4071   -3.1175    0.0000 C   0  0  0  0  0  0  0  0  0  0  0  0
    0.7082   -3.7198    0.0000 C   0  0  0  0  0  0  0  0  0  0  0  0
    7.4071   -1.4733    0.0000 C   0  0  0  0  0  0  0  0  0  0  0  0
    8.1397   -2.6943    0.0000 C   0  0  0  0  0  0  0  0  0  0  0  0
    0.0000   -2.4745    0.0000 C   0  0  0  0  0  0  0  0  0  0  0  0
    0.0000   -3.3047    0.0000 C   0  0  0  0  0  0  0  0  0  0  0  0
    8.1397   -1.8721    0.0000 C   0  0  0  0  0  0  0  0  0  0  0  0
  1  2  1  0
  1  9  1  0
  1 14  1  0
  2  5  1  0
  2  8  2  0
  3  7  1  0
  3  4  2  0
  3 10  1  0
  4  6  1  0
  5  7  1  0
  5 16  2  0
  6 12  1  0
  6 13  2  0
  8 11  1  0
  9 11  2  0
  9 21  1  0
 10 13  1  0
 11 23  1  0
 12 17  2  0
 12 22  1  0
 14 15  1  0
 15 18  2  0
 15 20  1  0
 17 19  1  0
 17 24  1  0
 21 26  2  0
 22 25  2  0
 23 27  2  0
 24 28  2  0
 25 28  1  0
 26 27  1  0
M  END
>  <Formula>  (244) 
C20H14ClN3O3S

>  <FW>  (244) 
411.8615

>  <DSSTox_CID>  (244) 
26738

>  <NR-Aromatase>  (244) 
0

>  <NR-AR>  (244) 
0

>  <NR-ER>  (244) 
0

>  <NR-ER-LBD>  (244) 
0

>  <NR-PPAR-gamma>  (244) 
1

>  <SR-ATAD5>  (244) 
0

>  <SR-p53>  (244) 
0

$$$$
NCGC00255356-01
     RDKit          2D

 35 39  0  0  0  0  0  0  0  0999 V2000
    2.8773   -2.8974    0.0000 C   0  0  0  0  0  0  0  0  0  0  0  0
    2.1630   -2.4949    0.0000 C   0  0  0  0  0  0  0  0  0  0  0  0
    2.8773   -3.7223    0.0000 C   0  0  0  0  0  0  0  0  0  0  0  0
    3.6016   -2.4849    0.0000 C   0  0  0  0  0  0  0  0  0  0  0  0
    2.1630   -4.1449    0.0000 O   0  0  0  0  0  0  0  0  0  0  0  0
    1.4286   -2.8974    0.0000 C   0  0  0  0  0  0  0  0  0  0  0  0
    1.4286   -3.7223    0.0000 C   0  0  0  0  0  0  0  0  0  0  0  0
    4.3058   -2.8873    0.0000 C   0  0  0  0  0  0  0  0  0  0  0  0
    3.6016   -4.1549    0.0000 O   0  0  0  0  0  0  0  0  0  0  0  0
    5.0302   -2.4849    0.0000 C   0  0  0  0  0  0  0  0  0  0  0  0
    3.6016   -1.6600    0.0000 C   0  0  0  0  0  0  0  0  0  0  0  0
    5.7545   -2.8873    0.0000 C   0  0  0  0  0  0  0  0  0  0  0  0
    7.1830   -3.7123    0.0000 C   0  0  0  0  0  0  0  0  0  0  0  0
    7.8973   -4.1348    0.0000 C   0  0  0  0  0  0  0  0  0  0  0  0
    2.1630   -1.6600    0.0000 O   0  0  0  0  0  0  0  0  0  0  0  0
    5.7545   -3.7123    0.0000 C   0  0  0  0  0  0  0  0  0  0  0  0
    6.4587   -2.4849    0.0000 C   0  0  0  0  0  0  0  0  0  0  0  0
    7.1830   -2.8873    0.0000 C   0  0  0  0  0  0  0  0  0  0  0  0
    6.4587   -4.1348    0.0000 C   0  0  0  0  0  0  0  0  0  0  0  0
    8.6318   -3.7123    0.0000 C   0  0  0  0  0  0  0  0  0  0  0  0
    7.8973   -4.9597    0.0000 C   0  0  0  0  0  0  0  0  0  0  0  0
    9.3360   -4.9597    0.0000 C   0  0  0  0  0  0  0  0  0  0  0  0
    8.6318   -5.3722    0.0000 C   0  0  0  0  0  0  0  0  0  0  0  0
    9.3360   -4.1348    0.0000 C   0  0  0  0  0  0  0  0  0  0  0  0
    5.0302   -1.6499    0.0000 O   0  0  0  0  0  0  0  0  0  0  0  0
   10.0603   -5.3823    0.0000 Br  0  0  0  0  0  0  0  0  0  0  0  0
    0.7243   -2.4949    0.0000 C   0  0  0  0  0  0  0  0  0  0  0  0
    0.7243   -4.1449    0.0000 C   0  0  0  0  0  0  0  0  0  0  0  0
    4.3058   -1.2475    0.0000 C   0  0  0  0  0  0  0  0  0  0  0  0
    2.8773   -1.2475    0.0000 C   0  0  0  0  0  0  0  0  0  0  0  0
    0.0000   -2.8974    0.0000 C   0  0  0  0  0  0  0  0  0  0  0  0
    0.0000   -3.7223    0.0000 C   0  0  0  0  0  0  0  0  0  0  0  0
    2.8773   -0.4125    0.0000 C   0  0  0  0  0  0  0  0  0  0  0  0
    4.3058   -0.4125    0.0000 C   0  0  0  0  0  0  0  0  0  0  0  0
    3.6016    0.0000    0.0000 C   0  0  0  0  0  0  0  0  0  0  0  0
  1  2  2  0
  1  3  1  0
  1  4  1  0
  2  6  1  0
  2 15  1  0
  3  5  1  0
  3  9  2  0
  4  8  1  0
  4 11  1  0
  5  7  1  0
  6 27  2  0
  6  7  1  0
  7 28  2  0
  8 10  1  0
 10 12  1  0
 10 25  1  0
 11 29  2  0
 11 30  1  0
 12 16  2  0
 12 17  1  0
 13 18  1  0
 13 14  1  0
 13 19  2  0
 14 20  2  0
 14 21  1  0
 16 19  1  0
 17 18  2  0
 20 24  1  0
 21 23  2  0
 22 23  1  0
 22 26  1  0
 22 24  2  0
 27 31  1  0
 28 32  1  0
 29 34  1  0
 30 33  2  0
 31 32  2  0
 33 35  1  0
 34 35  2  0
M  END
>  <Formula>  (245) 
C30H23BrO4

>  <FW>  (245) 
527.4052

>  <DSSTox_CID>  (245) 
12589

>  <NR-Aromatase>  (245) 
0

>  <NR-AR>  (245) 
0

>  <NR-ER>  (245) 
0

>  <NR-ER-LBD>  (245) 
0

>  <NR-PPAR-gamma>  (245) 
1

>  <NR-AhR>  (245) 
0

>  <SR-ATAD5>  (245) 
0

>  <SR-p53>  (245) 
1

$$$$
NCGC00095150-01
     RDKit          2D

 39 44  0  0  0  0  0  0  0  0999 V2000
   10.5770   -3.4692    0.0000 C   0  0  0  0  0  0  0  0  0  0  0  0
   10.1644   -4.1885    0.0000 C   0  0  0  0  0  0  0  0  0  0  0  0
    9.3394   -4.1885    0.0000 C   0  0  0  0  0  0  0  0  0  0  0  0
    8.9270   -3.4692    0.0000 C   0  0  0  0  0  0  0  0  0  0  0  0
    9.3394   -2.7606    0.0000 C   0  0  0  0  0  0  0  0  0  0  0  0
   10.1644   -2.7606    0.0000 C   0  0  0  0  0  0  0  0  0  0  0  0
    8.7894   -2.1471    0.0000 N   0  0  0  0  0  0  0  0  0  0  0  0
    8.0279   -2.4750    0.0000 C   0  0  0  0  0  0  0  0  0  0  0  0
    7.3192   -2.0625    0.0000 C   0  0  0  0  0  0  0  0  0  0  0  0
    6.6000   -2.4750    0.0000 C   0  0  0  0  0  0  0  0  0  0  0  0
    5.8914   -2.0625    0.0000 C   0  0  0  0  0  0  0  0  0  0  0  0
    5.8914   -1.2375    0.0000 C   0  0  0  0  0  0  0  0  0  0  0  0
    6.6000   -0.8250    0.0000 C   0  0  0  0  0  0  0  0  0  0  0  0
    6.6000    0.0000    0.0000 C   0  0  0  0  0  0  0  0  0  0  0  0
    7.3192   -1.2375    0.0000 C   0  0  0  0  0  0  0  0  0  0  0  0
    5.0981   -0.9837    0.0000 N   0  0  0  0  0  0  0  0  0  0  0  0
    4.6116   -1.6500    0.0000 C   0  0  0  0  0  0  0  0  0  0  0  0
    3.7866   -1.6500    0.0000 C   0  0  0  0  0  0  0  0  0  0  0  0
    3.3740   -0.9414    0.0000 C   0  0  0  0  0  0  0  0  0  0  0  0
    2.5490   -0.9414    0.0000 C   0  0  0  0  0  0  0  0  0  0  0  0
    5.0981   -2.3163    0.0000 N   0  0  0  0  0  0  0  0  0  0  0  0
    4.8442   -3.1096    0.0000 C   0  0  0  0  0  0  0  0  0  0  0  0
    4.0404   -3.2788    0.0000 C   0  0  0  0  0  0  0  0  0  0  0  0
    3.7866   -4.0615    0.0000 C   0  0  0  0  0  0  0  0  0  0  0  0
    2.9721   -4.2308    0.0000 C   0  0  0  0  0  0  0  0  0  0  0  0
    2.4221   -3.6173    0.0000 C   0  0  0  0  0  0  0  0  0  0  0  0
    1.6183   -3.7971    0.0000 C   0  0  0  0  0  0  0  0  0  0  0  0
    1.3644   -4.5798    0.0000 C   0  0  0  0  0  0  0  0  0  0  0  0
    0.5500   -4.7490    0.0000 C   0  0  0  0  0  0  0  0  0  0  0  0
    0.0000   -4.1356    0.0000 C   0  0  0  0  0  0  0  0  0  0  0  0
    0.2539   -3.3529    0.0000 C   0  0  0  0  0  0  0  0  0  0  0  0
    1.0577   -3.1837    0.0000 C   0  0  0  0  0  0  0  0  0  0  0  0
    1.3221   -2.3904    0.0000 C   0  0  0  0  0  0  0  0  0  0  0  0
    0.7298   -1.8087    0.0000 O   0  0  0  0  0  0  0  0  0  0  0  0
    2.1259   -2.2211    0.0000 O   0  0  0  0  0  0  0  0  0  0  0  0
    2.6760   -2.8346    0.0000 C   0  0  0  0  0  0  0  0  0  0  0  0
    3.4904   -2.6654    0.0000 C   0  0  0  0  0  0  0  0  0  0  0  0
    8.1231   -3.3000    0.0000 N   0  0  0  0  0  0  0  0  0  0  0  0
    7.4990   -3.8500    0.0000 C   0  0  0  0  0  0  0  0  0  0  0  0
  1  2  2  0
  1  6  1  0
  2  3  1  0
  3  4  2  0
  4  5  1  0
  4 38  1  0
  5  6  2  0
  5  7  1  0
  7  8  2  0
  8  9  1  0
  8 38  1  0
  9 10  2  0
  9 15  1  0
 10 11  1  0
 11 12  2  0
 11 21  1  0
 12 13  1  0
 12 16  1  0
 13 14  1  0
 13 15  2  0
 16 17  2  0
 17 18  1  0
 17 21  1  0
 18 19  1  0
 19 20  1  0
 21 22  1  0
 22 23  1  0
 23 24  2  0
 23 37  1  0
 24 25  1  0
 25 26  2  0
 26 27  1  0
 26 36  1  0
 27 28  2  0
 27 32  1  0
 28 29  1  0
 29 30  2  0
 30 31  1  0
 31 32  2  0
 32 33  1  0
 33 34  1  0
 33 35  2  0
 36 37  2  0
 38 39  1  0
M  END
>  <Formula>  (246) 
C33H30N4O2

>  <FW>  (246) 
514.6169

>  <DSSTox_CID>  (246) 
3636

>  <NR-Aromatase>  (246) 
0

>  <NR-AR>  (246) 
0

>  <NR-ER>  (246) 
0

>  <NR-ER-LBD>  (246) 
0

>  <NR-PPAR-gamma>  (246) 
1

>  <NR-AhR>  (246) 
0

>  <SR-ATAD5>  (246) 
0

>  <SR-p53>  (246) 
0

$$$$
NCGC00015562-18
     RDKit          2D

 25 27  0  0  0  0  0  0  0  0999 V2000
    4.5038   -2.1177    0.0000 C   0  0  0  0  0  0  0  0  0  0  0  0
    3.7880   -2.5278    0.0000 C   0  0  0  0  0  0  0  0  0  0  0  0
    3.0348   -2.1923    0.0000 C   0  0  0  0  0  0  0  0  0  0  0  0
    2.4756   -2.8112    0.0000 C   0  0  0  0  0  0  0  0  0  0  0  0
    2.8932   -3.5270    0.0000 C   0  0  0  0  0  0  0  0  0  0  0  0
    2.4756   -4.2354    0.0000 C   0  0  0  0  0  0  0  0  0  0  0  0
    1.6554   -4.2354    0.0000 C   0  0  0  0  0  0  0  0  0  0  0  0
    1.2378   -3.5270    0.0000 C   0  0  0  0  0  0  0  0  0  0  0  0
    1.6554   -2.8112    0.0000 C   0  0  0  0  0  0  0  0  0  0  0  0
    0.4101   -3.5270    0.0000 O   0  0  0  0  0  0  0  0  0  0  0  0
    0.0000   -4.2354    0.0000 C   0  0  0  0  0  0  0  0  0  0  0  0
    3.6985   -3.3480    0.0000 N   0  0  0  0  0  0  0  0  0  0  0  0
    4.3174   -3.9073    0.0000 C   0  0  0  0  0  0  0  0  0  0  0  0
    4.1385   -4.7126    0.0000 O   0  0  0  0  0  0  0  0  0  0  0  0
    5.1004   -3.6463    0.0000 C   0  0  0  0  0  0  0  0  0  0  0  0
    5.2719   -2.8410    0.0000 C   0  0  0  0  0  0  0  0  0  0  0  0
    6.0549   -2.5875    0.0000 C   0  0  0  0  0  0  0  0  0  0  0  0
    6.6737   -3.1392    0.0000 C   0  0  0  0  0  0  0  0  0  0  0  0
    6.5022   -3.9446    0.0000 C   0  0  0  0  0  0  0  0  0  0  0  0
    5.7118   -4.2056    0.0000 C   0  0  0  0  0  0  0  0  0  0  0  0
    7.4567   -2.8857    0.0000 Cl  0  0  0  0  0  0  0  0  0  0  0  0
    2.8559   -1.3869    0.0000 C   0  0  0  0  0  0  0  0  0  0  0  0
    3.4450   -0.8054    0.0000 C   0  0  0  0  0  0  0  0  0  0  0  0
    3.2287    0.0000    0.0000 O   0  0  0  0  0  0  0  0  0  0  0  0
    4.2429   -1.0141    0.0000 O   0  0  0  0  0  0  0  0  0  0  0  0
  1  2  1  0
  2  3  2  0
  2 12  1  0
  3  4  1  0
  3 22  1  0
  4  5  2  0
  4  9  1  0
  5  6  1  0
  5 12  1  0
  6  7  2  0
  7  8  1  0
  8  9  2  0
  8 10  1  0
 10 11  1  0
 12 13  1  0
 13 14  2  0
 13 15  1  0
 15 16  2  0
 15 20  1  0
 16 17  1  0
 17 18  2  0
 18 19  1  0
 18 21  1  0
 19 20  2  0
 22 23  1  0
 23 24  2  0
 23 25  1  0
M  END
>  <Formula>  (247) 
C19H16ClNO4

>  <FW>  (247) 
357.7876

>  <DSSTox_CID>  (247) 
740

>  <NR-Aromatase>  (247) 
0

>  <NR-AR>  (247) 
0

>  <NR-ER>  (247) 
0

>  <NR-ER-LBD>  (247) 
0

>  <NR-PPAR-gamma>  (247) 
1

>  <NR-AhR>  (247) 
0

>  <SR-ATAD5>  (247) 
0

>  <SR-p53>  (247) 
0

$$$$
NCGC00254075-01
     RDKit          2D

 25 27  0  0  0  0  0  0  0  0999 V2000
    4.5038   -2.1177    0.0000 C   0  0  0  0  0  0  0  0  0  0  0  0
    3.7880   -2.5278    0.0000 C   0  0  0  0  0  0  0  0  0  0  0  0
    3.0348   -2.1923    0.0000 C   0  0  0  0  0  0  0  0  0  0  0  0
    2.4756   -2.8112    0.0000 C   0  0  0  0  0  0  0  0  0  0  0  0
    2.8932   -3.5270    0.0000 C   0  0  0  0  0  0  0  0  0  0  0  0
    2.4756   -4.2354    0.0000 C   0  0  0  0  0  0  0  0  0  0  0  0
    1.6554   -4.2354    0.0000 C   0  0  0  0  0  0  0  0  0  0  0  0
    1.2378   -3.5270    0.0000 C   0  0  0  0  0  0  0  0  0  0  0  0
    1.6554   -2.8112    0.0000 C   0  0  0  0  0  0  0  0  0  0  0  0
    0.4101   -3.5270    0.0000 O   0  0  0  0  0  0  0  0  0  0  0  0
    0.0000   -4.2354    0.0000 C   0  0  0  0  0  0  0  0  0  0  0  0
    3.6985   -3.3480    0.0000 N   0  0  0  0  0  0  0  0  0  0  0  0
    4.3174   -3.9073    0.0000 C   0  0  0  0  0  0  0  0  0  0  0  0
    4.1385   -4.7126    0.0000 O   0  0  0  0  0  0  0  0  0  0  0  0
    5.1004   -3.6463    0.0000 C   0  0  0  0  0  0  0  0  0  0  0  0
    5.2719   -2.8410    0.0000 C   0  0  0  0  0  0  0  0  0  0  0  0
    6.0549   -2.5875    0.0000 C   0  0  0  0  0  0  0  0  0  0  0  0
    6.6737   -3.1392    0.0000 C   0  0  0  0  0  0  0  0  0  0  0  0
    6.5022   -3.9446    0.0000 C   0  0  0  0  0  0  0  0  0  0  0  0
    5.7118   -4.2056    0.0000 C   0  0  0  0  0  0  0  0  0  0  0  0
    7.4567   -2.8857    0.0000 Cl  0  0  0  0  0  0  0  0  0  0  0  0
    2.8559   -1.3869    0.0000 C   0  0  0  0  0  0  0  0  0  0  0  0
    3.4450   -0.8054    0.0000 C   0  0  0  0  0  0  0  0  0  0  0  0
    3.2287    0.0000    0.0000 O   0  0  0  0  0  0  0  0  0  0  0  0
    4.2429   -1.0141    0.0000 O   0  0  0  0  0  0  0  0  0  0  0  0
  1  2  1  0
  2  3  2  0
  2 12  1  0
  3  4  1  0
  3 22  1  0
  4  5  2  0
  4  9  1  0
  5  6  1  0
  5 12  1  0
  6  7  2  0
  7  8  1  0
  8  9  2  0
  8 10  1  0
 10 11  1  0
 12 13  1  0
 13 14  2  0
 13 15  1  0
 15 16  2  0
 15 20  1  0
 16 17  1  0
 17 18  2  0
 18 19  1  0
 18 21  1  0
 19 20  2  0
 22 23  1  0
 23 24  2  0
 23 25  1  0
M  END
>  <Formula>  (248) 
C19H16ClNO4

>  <FW>  (248) 
357.7876

>  <DSSTox_CID>  (248) 
740

>  <NR-Aromatase>  (248) 
0

>  <NR-AR>  (248) 
0

>  <NR-ER>  (248) 
0

>  <NR-ER-LBD>  (248) 
0

>  <NR-PPAR-gamma>  (248) 
1

>  <NR-AhR>  (248) 
0

>  <SR-ATAD5>  (248) 
0

>  <SR-HSE>  (248) 
0

>  <SR-p53>  (248) 
0

$$$$
NCGC00257322-01
     RDKit          2D

 32 35  0  0  0  0  0  0  0  0999 V2000
    2.6226   -3.8140    0.0000 Na  0  0  0  0  0 15  0  0  0  0  0  0
    3.5745   -1.6580    0.0000 C   0  0  0  0  0  0  0  0  0  0  0  0
    3.5745   -2.4838    0.0000 C   0  0  0  0  0  0  0  0  0  0  0  0
    2.8621   -1.2419    0.0000 C   0  0  0  0  0  0  0  0  0  0  0  0
    2.8621   -2.8873    0.0000 C   0  0  0  0  0  0  0  0  0  0  0  0
    2.1434   -1.6580    0.0000 C   0  0  0  0  0  0  0  0  0  0  0  0
    2.1434   -2.4838    0.0000 C   0  0  0  0  0  0  0  0  0  0  0  0
    1.4310   -1.2419    0.0000 C   0  0  0  0  0  0  0  0  0  0  0  0
    0.7124   -1.6454    0.0000 C   0  0  0  0  0  0  0  0  0  0  0  0
    1.4310   -0.4161    0.0000 C   0  0  0  0  0  0  0  0  0  0  0  0
    0.0000   -1.2419    0.0000 C   0  0  0  0  0  0  0  0  0  0  0  0
    0.7124    0.0000    0.0000 C   0  0  0  0  0  0  0  0  0  0  0  0
    0.0000   -0.4161    0.0000 C   0  0  0  0  0  0  0  0  0  0  0  0
    0.7124   -2.4838    0.0000 C   0  0  0  0  0  0  0  0  0  0  0  0
    1.3869   -2.9567    0.0000 N   0  0  0  0  0  0  0  0  0  0  0  0
    0.0505   -2.9567    0.0000 N   0  0  0  0  0  0  0  0  0  0  0  0
    1.1347   -3.7447    0.0000 N   0  0  0  0  0  0  0  0  0  0  0  0
    0.3089   -3.7447    0.0000 N   0  0  0  0  0  0  0  0  0  0  0  0
    4.2869   -2.8873    0.0000 C   0  0  0  0  0  0  0  0  0  0  0  0
    5.0055   -2.4838    0.0000 N   0  0  0  0  0  0  0  0  0  0  0  0
    5.0812   -1.6580    0.0000 C   0  0  0  0  0  0  0  0  0  0  0  0
    5.7494   -2.8117    0.0000 C   0  0  0  0  0  0  0  0  0  0  0  0
    5.8944   -1.4878    0.0000 C   0  0  0  0  0  0  0  0  0  0  0  0
    6.3042   -2.2002    0.0000 N   0  0  0  0  0  0  0  0  0  0  0  0
    4.5391   -1.0402    0.0000 N   0  0  0  0  0  0  0  0  0  0  0  0
    4.7849   -0.2585    0.0000 C   0  0  0  0  0  0  0  0  0  0  0  0
    6.1466   -0.7061    0.0000 C   0  0  0  0  0  0  0  0  0  0  0  0
    5.5982   -0.0883    0.0000 C   0  0  0  0  0  0  0  0  0  0  0  0
    5.9260   -3.6123    0.0000 C   0  0  0  0  0  0  0  0  0  0  0  0
    5.3144   -4.1671    0.0000 C   0  0  0  0  0  0  0  0  0  0  0  0
    5.4783   -4.9740    0.0000 C   0  0  0  0  0  0  0  0  0  0  0  0
    4.8732   -5.5288    0.0000 C   0  0  0  0  0  0  0  0  0  0  0  0
  2  3  2  0
  2  4  1  0
  3  5  1  0
  3 19  1  0
  4  6  2  0
  5  7  2  0
  6  7  1  0
  6  8  1  0
  8  9  1  0
  8 10  2  0
  9 11  2  0
  9 14  1  0
 10 12  1  0
 11 13  1  0
 12 13  2  0
 14 15  1  0
 14 16  2  0
 15 17  1  0
 16 18  1  0
 17 18  2  0
 19 20  1  0
 20 21  1  0
 20 22  1  0
 21 25  2  0
 21 23  1  0
 22 24  2  0
 22 29  1  0
 23 24  1  0
 23 27  2  0
 25 26  1  0
 26 28  2  0
 27 28  1  0
 29 30  1  0
 30 31  1  0
 31 32  1  0
M  CHG  2   1   1  15  -1
M  END
>  <Formula>  (249) 
C24H22N7Na

>  <FW>  (249) 
431.4681 (22.9892+408.4789)

>  <DSSTox_CID>  (249) 
28152

>  <NR-AR>  (249) 
0

>  <NR-ER>  (249) 
0

>  <NR-ER-LBD>  (249) 
0

>  <NR-PPAR-gamma>  (249) 
1

>  <NR-AhR>  (249) 
0

>  <SR-ATAD5>  (249) 
0

>  <SR-HSE>  (249) 
0

>  <SR-p53>  (249) 
0

$$$$
NCGC00164547-01
     RDKit          2D

 41 45  0  0  0  0  0  0  0  0999 V2000
    1.4122   -3.3587    0.0000 C   0  0  0  0  0  0  0  0  0  0  0  0
    1.4122   -4.1729    0.0000 C   0  0  0  0  0  0  0  0  0  0  0  0
    0.7125   -2.9389    0.0000 C   0  0  0  0  0  0  0  0  0  0  0  0
    0.7125   -4.5800    0.0000 C   0  0  0  0  0  0  0  0  0  0  0  0
    0.0000   -3.3587    0.0000 C   0  0  0  0  0  0  0  0  0  0  0  0
    0.0000   -4.1729    0.0000 C   0  0  0  0  0  0  0  0  0  0  0  0
    2.1247   -2.9389    0.0000 C   0  0  0  0  0  0  0  0  0  0  0  0
    2.1247   -4.5800    0.0000 S   0  0  0  0  0  0  0  0  0  0  0  0
    2.8371   -4.1857    0.0000 N   0  0  0  0  0  0  0  0  0  0  0  0
    4.2620   -3.3587    0.0000 C   0  0  0  0  0  0  0  0  0  0  0  0
    3.5496   -4.5800    0.0000 C   0  0  0  0  0  0  0  0  0  0  0  0
    4.2620   -4.1857    0.0000 C   0  0  0  0  0  0  0  0  0  0  0  0
    5.6869   -3.3587    0.0000 C   0  0  0  0  0  0  0  0  0  0  0  0
    5.6869   -4.1857    0.0000 C   0  0  0  0  0  0  0  0  0  0  0  0
    4.9745   -2.9389    0.0000 C   0  0  0  0  0  0  0  0  0  0  0  0
    4.9745   -4.5800    0.0000 C   0  0  0  0  0  0  0  0  0  0  0  0
    6.3994   -2.1119    0.0000 C   0  0  0  0  0  0  0  0  0  0  0  0
    6.3994   -2.9389    0.0000 C   0  0  0  0  0  0  0  0  0  0  0  0
    4.9745   -2.1119    0.0000 O   0  0  0  0  0  0  0  0  0  0  0  0
    4.2620   -1.7048    0.0000 C   0  0  0  0  0  0  0  0  0  0  0  0
    1.7175   -5.2925    0.0000 O   0  0  0  0  0  0  0  0  0  0  0  0
    2.5317   -5.2925    0.0000 O   0  0  0  0  0  0  0  0  0  0  0  0
    3.5496   -5.4070    0.0000 O   0  0  0  0  0  0  0  0  0  0  0  0
    8.6003   -1.0432    0.0000 C   0  0  0  0  0  0  0  0  0  0  0  0
    8.6003   -1.8702    0.0000 C   0  0  0  0  0  0  0  0  0  0  0  0
    7.9006   -0.6361    0.0000 C   0  0  0  0  0  0  0  0  0  0  0  0
    7.9006   -2.2773    0.0000 C   0  0  0  0  0  0  0  0  0  0  0  0
    7.1754   -1.0432    0.0000 C   0  0  0  0  0  0  0  0  0  0  0  0
    7.1754   -1.8702    0.0000 C   0  0  0  0  0  0  0  0  0  0  0  0
    6.3994   -0.7761    0.0000 N   0  0  0  0  0  0  0  0  0  0  0  0
    5.9159   -1.4631    0.0000 C   0  0  0  0  0  0  0  0  0  0  0  0
    6.1449    0.0000    0.0000 C   0  0  0  0  0  0  0  0  0  0  0  0
    9.3128   -2.2773    0.0000 N   0  0  0  0  0  0  0  0  0  0  0  0
   10.0252   -1.8702    0.0000 C   0  0  0  0  0  0  0  0  0  0  0  0
   10.7377   -2.2773    0.0000 O   0  0  0  0  0  0  0  0  0  0  0  0
   11.4502   -1.8702    0.0000 C   0  0  0  0  0  0  0  0  0  0  0  0
   11.4502   -1.0432    0.0000 C   0  0  0  0  0  0  0  0  0  0  0  0
   10.0252   -1.0432    0.0000 O   0  0  0  0  0  0  0  0  0  0  0  0
   12.2390   -2.1119    0.0000 C   0  0  0  0  0  0  0  0  0  0  0  0
   12.7224   -1.4631    0.0000 C   0  0  0  0  0  0  0  0  0  0  0  0
   12.2390   -0.7761    0.0000 C   0  0  0  0  0  0  0  0  0  0  0  0
  1  3  2  0
  1  7  1  0
  1  2  1  0
  2  4  2  0
  2  8  1  0
  3  5  1  0
  4  6  1  0
  5  6  2  0
  8  9  1  0
  8 21  2  0
  8 22  2  0
  9 11  1  0
 10 15  2  0
 10 12  1  0
 11 12  1  0
 11 23  2  0
 12 16  2  0
 13 14  2  0
 13 15  1  0
 13 18  1  0
 14 16  1  0
 15 19  1  0
 17 18  1  0
 17 29  1  0
 17 31  2  0
 19 20  1  0
 24 25  2  0
 24 26  1  0
 25 27  1  0
 25 33  1  0
 26 28  2  0
 27 29  2  0
 28 29  1  0
 28 30  1  0
 30 31  1  0
 30 32  1  0
 33 34  1  0
 34 35  1  0
 34 38  2  0
 35 36  1  0
 36 39  1  0
 36 37  1  0
 37 41  1  0
 39 40  1  0
 40 41  1  0
M  END
>  <Formula>  (250) 
C31H33N3O6S

>  <FW>  (250) 
575.6752

>  <DSSTox_CID>  (250) 
3746

>  <NR-Aromatase>  (250) 
0

>  <NR-AR>  (250) 
0

>  <NR-AR-LBD>  (250) 
0

>  <NR-ER>  (250) 
0

>  <NR-ER-LBD>  (250) 
0

>  <NR-PPAR-gamma>  (250) 
1

>  <NR-AhR>  (250) 
1

>  <SR-ATAD5>  (250) 
0

>  <SR-MMP>  (250) 
1

$$$$
NCGC00183830-01
     RDKit          2D

 30 31  0  0  0  0  0  0  0  0999 V2000
    4.2796   -4.2602    0.0000 C   0  0  0  0  0  0  0  0  0  0  0  0
    3.5964   -3.8284    0.0000 C   0  0  0  0  0  0  0  0  0  0  0  0
    2.8488   -4.2602    0.0000 C   0  0  0  0  0  0  0  0  0  0  0  0
    2.8488   -5.0852    0.0000 C   0  0  0  0  0  0  0  0  0  0  0  0
    3.5964   -5.5042    0.0000 C   0  0  0  0  0  0  0  0  0  0  0  0
    4.2796   -5.0852    0.0000 C   0  0  0  0  0  0  0  0  0  0  0  0
    4.2796   -1.2439    0.0000 C   0  0  0  0  0  0  0  0  0  0  0  0
    3.5964   -0.8250    0.0000 N   0  0  0  0  0  0  0  0  0  0  0  0
    2.8488   -1.2439    0.0000 C   0  0  0  0  0  0  0  0  0  0  0  0
    2.8488   -2.0689    0.0000 C   0  0  0  0  0  0  0  0  0  0  0  0
    3.5964   -2.4749    0.0000 C   0  0  0  0  0  0  0  0  0  0  0  0
    4.2796   -2.0689    0.0000 C   0  0  0  0  0  0  0  0  0  0  0  0
    5.0272   -0.8250    0.0000 C   0  0  0  0  0  0  0  0  0  0  0  0
    5.0272   -2.4749    0.0000 C   0  0  0  0  0  0  0  0  0  0  0  0
    5.0272   -3.3322    0.0000 O   0  0  0  0  0  0  0  0  0  0  0  0
    5.7426   -2.0689    0.0000 O   0  0  0  0  0  0  0  0  0  0  0  0
    6.4452   -2.4749    0.0000 C   0  0  0  0  0  0  0  0  0  0  0  0
    5.0272   -5.5042    0.0000 Cl  0  0  0  0  0  0  0  0  0  0  0  0
    5.0272   -3.8284    0.0000 Cl  0  0  0  0  0  0  0  0  0  0  0  0
    2.1333   -2.4749    0.0000 C   0  0  0  0  0  0  0  0  0  0  0  0
    2.1333   -0.8250    0.0000 C   0  0  0  0  0  0  0  0  0  0  0  0
    1.4179   -1.2439    0.0000 O   0  0  0  0  0  0  0  0  0  0  0  0
    0.7026   -0.8250    0.0000 C   0  0  0  0  0  0  0  0  0  0  0  0
    0.7026    0.0000    0.0000 O   0  0  0  0  0  0  0  0  0  0  0  0
    0.0000   -1.2439    0.0000 N   0  0  0  0  0  0  0  0  0  0  0  0
    1.4179   -2.0689    0.0000 O   0  0  0  0  0  0  0  0  0  0  0  0
    2.1333   -3.2999    0.0000 O   0  0  0  0  0  0  0  0  0  0  0  0
    0.7026   -2.4749    0.0000 C   0  0  0  0  0  0  0  0  0  0  0  0
    0.7026   -3.2999    0.0000 C   0  0  0  0  0  0  0  0  0  0  0  0
    0.0000   -2.0689    0.0000 C   0  0  0  0  0  0  0  0  0  0  0  0
  1 19  1  0
  1  6  2  0
  1  2  1  0
  2 11  1  0
  2  3  2  0
  3  4  1  0
  4  5  2  0
  5  6  1  0
  6 18  1  0
  7 12  2  0
  7 13  1  0
  7  8  1  0
  8  9  1  0
  9 21  1  0
  9 10  2  0
 10 20  1  0
 10 11  1  0
 11 12  1  0
 12 14  1  0
 14 15  2  0
 14 16  1  0
 16 17  1  0
 20 26  1  0
 20 27  2  0
 21 22  1  0
 22 23  1  0
 23 24  2  0
 23 25  1  0
 26 28  1  0
 28 29  1  0
 28 30  1  0
M  END
>  <Formula>  (251) 
C20H22Cl2N2O6

>  <FW>  (251) 
457.3045

>  <DSSTox_CID>  (251) 
28738

>  <NR-AR>  (251) 
0

>  <NR-AR-LBD>  (251) 
1

>  <NR-ER>  (251) 
0

>  <NR-PPAR-gamma>  (251) 
1

>  <SR-ARE>  (251) 
1

>  <SR-ATAD5>  (251) 
0

>  <SR-HSE>  (251) 
1

>  <SR-p53>  (251) 
1

$$$$
NCGC00095122-01
     RDKit          2D

 32 36  0  0  0  0  0  0  0  0999 V2000
    4.1198   -3.4447    0.0000 C   0  0  0  0  0  0  0  0  0  0  0  0
    4.9407   -3.4447    0.0000 C   0  0  0  0  0  0  0  0  0  0  0  0
    5.3550   -2.7312    0.0000 N   0  0  0  0  0  0  0  0  0  0  0  0
    5.0175   -1.9793    0.0000 C   0  0  0  0  0  0  0  0  0  0  0  0
    4.2119   -1.8106    0.0000 C   0  0  0  0  0  0  0  0  0  0  0  0
    4.0047   -1.0127    0.0000 C   0  0  0  0  0  0  0  0  0  0  0  0
    3.2068   -0.7979    0.0000 C   0  0  0  0  0  0  0  0  0  0  0  0
    2.9920    0.0000    0.0000 C   0  0  0  0  0  0  0  0  0  0  0  0
    5.6312   -1.4270    0.0000 N   0  0  0  0  0  0  0  0  0  0  0  0
    6.3447   -1.8412    0.0000 C   0  0  0  0  0  0  0  0  0  0  0  0
    6.1759   -2.6468    0.0000 C   0  0  0  0  0  0  0  0  0  0  0  0
    6.7283   -3.2606    0.0000 O   0  0  0  0  0  0  0  0  0  0  0  0
    6.5211   -1.0357    0.0000 C   0  0  0  0  0  0  0  0  0  0  0  0
    7.3344   -0.9436    0.0000 C   0  0  0  0  0  0  0  0  0  0  0  0
    7.6719   -1.7032    0.0000 C   0  0  0  0  0  0  0  0  0  0  0  0
    7.0582   -2.2479    0.0000 C   0  0  0  0  0  0  0  0  0  0  0  0
    3.7055   -4.1581    0.0000 C   0  0  0  0  0  0  0  0  0  0  0  0
    2.8847   -4.1581    0.0000 C   0  0  0  0  0  0  0  0  0  0  0  0
    2.4704   -3.4447    0.0000 C   0  0  0  0  0  0  0  0  0  0  0  0
    1.6495   -3.4447    0.0000 C   0  0  0  0  0  0  0  0  0  0  0  0
    1.2352   -4.1581    0.0000 C   0  0  0  0  0  0  0  0  0  0  0  0
    0.4143   -4.1581    0.0000 C   0  0  0  0  0  0  0  0  0  0  0  0
    0.0000   -3.4447    0.0000 C   0  0  0  0  0  0  0  0  0  0  0  0
    0.4143   -2.7312    0.0000 C   0  0  0  0  0  0  0  0  0  0  0  0
    1.2352   -2.7312    0.0000 C   0  0  0  0  0  0  0  0  0  0  0  0
    1.6495   -2.0177    0.0000 C   0  0  0  0  0  0  0  0  0  0  0  0
    1.3119   -1.2659    0.0000 N   0  0  0  0  0  0  0  0  0  0  0  0
    1.9257   -0.7135    0.0000 N   0  0  0  0  0  0  0  0  0  0  0  0
    2.6391   -1.1278    0.0000 N   0  0  0  0  0  0  0  0  0  0  0  0
    2.4704   -1.9333    0.0000 N   0  0  0  0  0  0  0  0  0  0  0  0
    2.8847   -2.7312    0.0000 C   0  0  0  0  0  0  0  0  0  0  0  0
    3.7055   -2.7312    0.0000 C   0  0  0  0  0  0  0  0  0  0  0  0
  1  2  1  0
  1 17  2  0
  1 32  1  0
  2  3  1  0
  3  4  1  0
  3 11  1  0
  4  5  1  0
  4  9  2  0
  5  6  1  0
  6  7  1  0
  7  8  1  0
  9 10  1  0
 10 11  1  0
 10 13  1  0
 10 16  1  0
 11 12  2  0
 13 14  1  0
 14 15  1  0
 15 16  1  0
 17 18  1  0
 18 19  2  0
 19 20  1  0
 19 31  1  0
 20 21  2  0
 20 25  1  0
 21 22  1  0
 22 23  2  0
 23 24  1  0
 24 25  2  0
 25 26  1  0
 26 27  1  0
 26 30  2  0
 27 28  1  0
 28 29  2  0
 29 30  1  0
 31 32  2  0
M  END
>  <Formula>  (252) 
C25H28N6O

>  <FW>  (252) 
428.5294

>  <DSSTox_CID>  (252) 
3169

>  <NR-Aromatase>  (252) 
0

>  <NR-AR>  (252) 
0

>  <NR-AR-LBD>  (252) 
0

>  <NR-ER>  (252) 
0

>  <NR-ER-LBD>  (252) 
0

>  <NR-PPAR-gamma>  (252) 
1

>  <NR-AhR>  (252) 
0

>  <SR-ATAD5>  (252) 
0

>  <SR-p53>  (252) 
0

$$$$
NCGC00255032-01
     RDKit          2D

 27 29  0  0  0  0  0  0  0  0999 V2000
    4.6294   -1.2243    0.0000 C   0  0  0  0  0  0  0  0  0  0  0  0
    4.7660   -2.0441    0.0000 C   0  0  0  0  0  0  0  0  0  0  0  0
    3.8517   -0.9458    0.0000 C   0  0  0  0  0  0  0  0  0  0  0  0
    4.1407   -2.5695    0.0000 C   0  0  0  0  0  0  0  0  0  0  0  0
    3.2159   -1.4871    0.0000 C   0  0  0  0  0  0  0  0  0  0  0  0
    3.3630   -2.2910    0.0000 C   0  0  0  0  0  0  0  0  0  0  0  0
    1.2348   -1.6237    0.0000 C   0  0  0  0  0  0  0  0  0  0  0  0
    1.6500   -0.9091    0.0000 C   0  0  0  0  0  0  0  0  0  0  0  0
    0.4098   -1.6237    0.0000 C   0  0  0  0  0  0  0  0  0  0  0  0
    1.2348   -0.1997    0.0000 C   0  0  0  0  0  0  0  0  0  0  0  0
    0.0000   -0.9091    0.0000 C   0  0  0  0  0  0  0  0  0  0  0  0
    0.4098   -0.1997    0.0000 C   0  0  0  0  0  0  0  0  0  0  0  0
    2.0021   -1.5816    0.0000 C   0  0  0  0  0  0  0  0  0  0  0  0
    2.0021   -0.2417    0.0000 O   0  0  0  0  0  0  0  0  0  0  0  0
    2.7850   -0.4992    0.0000 C   0  0  0  0  0  0  0  0  0  0  0  0
    2.7850   -1.3242    0.0000 C   0  0  0  0  0  0  0  0  0  0  0  0
    3.4419    0.0000    0.0000 O   0  0  0  0  0  0  0  0  0  0  0  0
    1.8392   -2.2806    0.0000 O   0  0  0  0  0  0  0  0  0  0  0  0
    2.3909   -2.9059    0.0000 C   0  0  0  0  0  0  0  0  0  0  0  0
    3.1948   -2.7482    0.0000 O   0  0  0  0  0  0  0  0  0  0  0  0
    2.1176   -3.6835    0.0000 C   0  0  0  0  0  0  0  0  0  0  0  0
    5.2547   -0.6989    0.0000 Cl  0  0  0  0  0  0  0  0  0  0  0  0
    4.2878   -3.3840    0.0000 Cl  0  0  0  0  0  0  0  0  0  0  0  0
    1.3452   -3.4261    0.0000 C   0  0  0  0  0  0  0  0  0  0  0  0
    1.8601   -4.4717    0.0000 C   0  0  0  0  0  0  0  0  0  0  0  0
    2.9059   -3.9515    0.0000 C   0  0  0  0  0  0  0  0  0  0  0  0
    1.0457   -4.6294    0.0000 C   0  0  0  0  0  0  0  0  0  0  0  0
  1  2  2  0
  1  3  1  0
  1 22  1  0
  2  4  1  0
  3  5  2  0
  4  6  2  0
  4 23  1  0
  5  6  1  0
  5 16  1  0
  7  8  1  0
  7  9  1  0
  8 10  1  0
  8 13  1  0
  8 14  1  0
  9 11  1  0
 10 12  1  0
 11 12  1  0
 13 16  2  0
 13 18  1  0
 14 15  1  0
 15 16  1  0
 15 17  2  0
 18 19  1  0
 19 20  2  0
 19 21  1  0
 21 24  1  0
 21 25  1  0
 21 26  1  0
 25 27  1  0
M  END
>  <Formula>  (253) 
C21H24Cl2O4

>  <FW>  (253) 
411.3189

>  <DSSTox_CID>  (253) 
14928

>  <NR-AR>  (253) 
0

>  <NR-ER>  (253) 
1

>  <NR-ER-LBD>  (253) 
0

>  <NR-PPAR-gamma>  (253) 
1

>  <SR-ARE>  (253) 
1

>  <SR-ATAD5>  (253) 
0

>  <SR-HSE>  (253) 
0

>  <SR-MMP>  (253) 
1

>  <SR-p53>  (253) 
1

$$$$
NCGC00259784-01
     RDKit          2D

 24 26  0  0  1  0  0  0  0  0999 V2000
    4.0506   -0.7100    0.0000 O   0  0  0  0  0  0  0  0  0  0  0  0
    3.8004   -1.5012    0.0000 C   0  0  0  0  0  0  0  0  0  0  0  0
    3.0092   -1.7582    0.0000 C   0  0  0  0  0  0  0  0  0  0  0  0
    3.0092   -2.5832    0.0000 C   0  0  0  0  0  0  0  0  0  0  0  0
    3.8004   -2.8334    0.0000 O   0  0  0  0  0  0  0  0  0  0  0  0
    4.2805   -2.1639    0.0000 C   0  0  0  0  0  0  0  0  0  0  0  0
    4.6998   -1.4539    0.0000 C   0  0  0  0  0  0  0  0  0  0  0  0
    5.5248   -1.4539    0.0000 C   0  0  0  0  0  0  0  0  0  0  0  0
    5.9372   -2.1639    0.0000 C   0  0  0  0  0  0  0  0  0  0  0  0
    6.7622   -2.1639    0.0000 O   0  0  0  0  0  0  0  0  0  0  0  0
    5.5248   -2.8807    0.0000 C   0  0  0  0  0  0  0  0  0  0  0  0
    4.6998   -2.8807    0.0000 C   0  0  0  0  0  0  0  0  0  0  0  0
    4.2805   -3.6042    0.0000 C   0  0  0  0  0  0  0  0  0  0  0  0
    4.5510   -0.6357    0.0000 O   0  0  0  0  0  0  0  0  0  0  0  0
    5.1867   -0.1082    0.0000 C   0  0  0  0  0  0  0  0  0  0  0  0
    2.2992   -2.9957    0.0000 C   0  0  0  0  0  0  0  0  0  0  0  0
    2.2992   -3.8207    0.0000 Cl  0  0  0  0  0  0  0  0  0  0  0  0
    1.5756   -2.5832    0.0000 C   0  0  0  0  0  0  0  0  0  0  0  0
    0.8588   -2.9957    0.0000 O   0  0  0  0  0  0  0  0  0  0  0  0
    0.0000   -2.0354    0.0000 C   0  0  0  0  0  0  0  0  0  0  0  0
    1.5756   -1.7582    0.0000 C   0  0  0  0  0  0  0  0  0  0  0  0
    2.2992   -1.3389    0.0000 C   0  0  0  0  0  0  0  0  0  0  0  0
    2.2992   -0.5139    0.0000 O   0  0  0  0  0  0  0  0  0  0  0  0
    1.0617    0.0000    0.0000 C   0  0  0  0  0  0  0  0  0  0  0  0
  1  2  2  0
  2  3  1  0
  6  2  1  0
  3  4  2  0
  3 22  1  0
  4  5  1  0
  4 16  1  0
  6  5  1  6
  6  7  1  0
  6 12  1  0
  7  8  2  0
  7 14  1  0
  8  9  1  0
  9 10  2  0
  9 11  1  0
 11 12  1  0
 12 13  1  1
 14 15  1  0
 16 17  1  0
 16 18  2  0
 18 19  1  0
 18 21  1  0
 19 20  1  0
 21 22  2  0
 22 23  1  0
 23 24  1  0
M  END
>  <Formula>  (254) 
C17H17ClO6

>  <FW>  (254) 
352.7663

>  <DSSTox_CID>  (254) 
674

>  <NR-Aromatase>  (254) 
1

>  <NR-AR>  (254) 
0

>  <NR-AR-LBD>  (254) 
0

>  <NR-ER>  (254) 
0

>  <NR-ER-LBD>  (254) 
0

>  <NR-PPAR-gamma>  (254) 
1

>  <NR-AhR>  (254) 
0

>  <SR-ATAD5>  (254) 
1

>  <SR-HSE>  (254) 
0

>  <SR-MMP>  (254) 
0

>  <SR-p53>  (254) 
1

$$$$
NCGC00254191-01
     RDKit          2D

 30 34  0  0  1  0  0  0  0  0999 V2000
    2.1710   -1.2753    0.0000 C   0  0  0  0  0  0  0  0  0  0  0  0
    2.1710   -2.1179    0.0000 C   0  0  0  0  0  0  0  0  0  0  0  0
    2.8921   -0.8578    0.0000 N   0  0  0  0  0  0  0  0  0  0  0  0
    1.4498   -0.8578    0.0000 C   0  0  0  0  0  0  0  0  0  0  0  0
    2.7631   -2.6644    0.0000 C   0  0  0  0  0  0  0  0  0  0  0  0
    1.4498   -2.5354    0.0000 C   0  0  0  0  0  0  0  0  0  0  0  0
    3.6664   -1.1007    0.0000 C   0  0  0  0  0  0  0  0  0  0  0  0
    2.6188    0.0000    0.0000 C   0  0  0  0  0  0  0  0  0  0  0  0
    1.7156    0.0000    0.0000 C   0  0  0  0  0  0  0  0  0  0  0  0
    0.7059   -1.2753    0.0000 C   0  0  0  0  0  0  0  0  0  0  0  0
    2.5125   -3.4614    0.0000 C   0  0  0  0  0  0  0  0  0  0  0  0
    3.5525   -2.5429    0.0000 N   0  0  0  0  0  0  0  0  0  0  0  0
    0.7059   -2.1179    0.0000 C   0  0  0  0  0  0  0  0  0  0  0  0
    3.9624   -1.8446    0.0000 C   0  0  0  0  0  0  0  0  0  0  0  0
    4.2205   -0.5010    0.0000 O   0  0  0  0  0  0  0  0  0  0  0  0
    1.7079   -3.6436    0.0000 C   0  0  0  0  0  0  0  0  0  0  0  0
    3.0743   -4.0611    0.0000 C   0  0  0  0  0  0  0  0  0  0  0  0
    0.0000   -2.5278    0.0000 C   0  0  0  0  0  0  0  0  0  0  0  0
    4.7670   -1.8446    0.0000 N   0  0  0  0  0  0  0  0  0  0  0  0
    1.4650   -4.4254    0.0000 C   0  0  0  0  0  0  0  0  0  0  0  0
    2.8314   -4.8581    0.0000 C   0  0  0  0  0  0  0  0  0  0  0  0
    5.1618   -2.5429    0.0000 C   0  0  0  0  0  0  0  0  0  0  0  0
    2.0268   -5.0403    0.0000 C   0  0  0  0  0  0  0  0  0  0  0  0
    5.9816   -2.5429    0.0000 C   0  0  0  0  0  0  0  0  0  0  0  0
    4.7670   -3.2413    0.0000 O   0  0  0  0  0  0  0  0  0  0  0  0
    6.3763   -3.2413    0.0000 C   0  0  0  0  0  0  0  0  0  0  0  0
    6.3763   -1.8446    0.0000 C   0  0  0  0  0  0  0  0  0  0  0  0
    7.1809   -3.2413    0.0000 C   0  0  0  0  0  0  0  0  0  0  0  0
    7.1809   -1.8446    0.0000 C   0  0  0  0  0  0  0  0  0  0  0  0
    7.5908   -2.5429    0.0000 N   0  0  0  0  0  0  0  0  0  0  0  0
  1  2  1  0
  1  3  1  0
  1  4  2  0
  2  5  1  0
  2  6  2  0
  3  7  1  0
  3  8  1  0
  4  9  1  0
  4 10  1  0
  5 11  1  0
  5 12  2  0
  6 13  1  0
  7 14  1  0
  7 15  2  0
  8  9  1  0
 10 13  2  0
 11 16  2  0
 11 17  1  0
 12 14  1  0
 13 18  1  0
 14 19  1  6
 16 20  1  0
 17 21  2  0
 19 22  1  0
 20 23  2  0
 21 23  1  0
 22 24  1  0
 22 25  2  0
 24 26  2  0
 24 27  1  0
 26 28  1  0
 27 29  2  0
 28 30  2  0
 29 30  1  0
M  END
>  <Formula>  (255) 
C24H20N4O2

>  <FW>  (255) 
396.4412

>  <DSSTox_CID>  (255) 
27248

>  <NR-Aromatase>  (255) 
0

>  <NR-AR>  (255) 
0

>  <NR-AR-LBD>  (255) 
0

>  <NR-ER>  (255) 
0

>  <NR-ER-LBD>  (255) 
0

>  <NR-PPAR-gamma>  (255) 
1

>  <NR-AhR>  (255) 
0

>  <SR-ATAD5>  (255) 
0

>  <SR-HSE>  (255) 
0

>  <SR-MMP>  (255) 
0

>  <SR-p53>  (255) 
0

$$$$
NCGC00259340-01
     RDKit          2D

 25 27  0  0  0  0  0  0  0  0999 V2000
    4.5038   -2.1177    0.0000 C   0  0  0  0  0  0  0  0  0  0  0  0
    3.7880   -2.5278    0.0000 C   0  0  0  0  0  0  0  0  0  0  0  0
    3.0348   -2.1923    0.0000 C   0  0  0  0  0  0  0  0  0  0  0  0
    2.4756   -2.8112    0.0000 C   0  0  0  0  0  0  0  0  0  0  0  0
    2.8932   -3.5270    0.0000 C   0  0  0  0  0  0  0  0  0  0  0  0
    2.4756   -4.2354    0.0000 C   0  0  0  0  0  0  0  0  0  0  0  0
    1.6554   -4.2354    0.0000 C   0  0  0  0  0  0  0  0  0  0  0  0
    1.2378   -3.5270    0.0000 C   0  0  0  0  0  0  0  0  0  0  0  0
    1.6554   -2.8112    0.0000 C   0  0  0  0  0  0  0  0  0  0  0  0
    0.4101   -3.5270    0.0000 O   0  0  0  0  0  0  0  0  0  0  0  0
    0.0000   -4.2354    0.0000 C   0  0  0  0  0  0  0  0  0  0  0  0
    3.6985   -3.3480    0.0000 N   0  0  0  0  0  0  0  0  0  0  0  0
    4.3174   -3.9073    0.0000 C   0  0  0  0  0  0  0  0  0  0  0  0
    4.1385   -4.7126    0.0000 O   0  0  0  0  0  0  0  0  0  0  0  0
    5.1004   -3.6463    0.0000 C   0  0  0  0  0  0  0  0  0  0  0  0
    5.2719   -2.8410    0.0000 C   0  0  0  0  0  0  0  0  0  0  0  0
    6.0549   -2.5875    0.0000 C   0  0  0  0  0  0  0  0  0  0  0  0
    6.6737   -3.1392    0.0000 C   0  0  0  0  0  0  0  0  0  0  0  0
    6.5022   -3.9446    0.0000 C   0  0  0  0  0  0  0  0  0  0  0  0
    5.7118   -4.2056    0.0000 C   0  0  0  0  0  0  0  0  0  0  0  0
    7.4567   -2.8857    0.0000 Cl  0  0  0  0  0  0  0  0  0  0  0  0
    2.8559   -1.3869    0.0000 C   0  0  0  0  0  0  0  0  0  0  0  0
    3.4450   -0.8054    0.0000 C   0  0  0  0  0  0  0  0  0  0  0  0
    3.2287    0.0000    0.0000 O   0  0  0  0  0  0  0  0  0  0  0  0
    4.2429   -1.0141    0.0000 O   0  0  0  0  0  0  0  0  0  0  0  0
  1  2  1  0
  2  3  2  0
  2 12  1  0
  3  4  1  0
  3 22  1  0
  4  5  2  0
  4  9  1  0
  5  6  1  0
  5 12  1  0
  6  7  2  0
  7  8  1  0
  8  9  2  0
  8 10  1  0
 10 11  1  0
 12 13  1  0
 13 14  2  0
 13 15  1  0
 15 16  2  0
 15 20  1  0
 16 17  1  0
 17 18  2  0
 18 19  1  0
 18 21  1  0
 19 20  2  0
 22 23  1  0
 23 24  2  0
 23 25  1  0
M  END
>  <Formula>  (256) 
C19H16ClNO4

>  <FW>  (256) 
357.7876

>  <DSSTox_CID>  (256) 
740

>  <NR-Aromatase>  (256) 
0

>  <NR-AR>  (256) 
0

>  <NR-ER>  (256) 
0

>  <NR-ER-LBD>  (256) 
0

>  <NR-PPAR-gamma>  (256) 
1

>  <NR-AhR>  (256) 
0

>  <SR-ARE>  (256) 
0

>  <SR-ATAD5>  (256) 
0

>  <SR-HSE>  (256) 
0

>  <SR-MMP>  (256) 
0

>  <SR-p53>  (256) 
0

$$$$
NCGC00254669-01
     RDKit          2D

 25 27  0  0  0  0  0  0  0  0999 V2000
    0.7142   -2.4870    0.0000 N   0  0  0  0  0  0  0  0  0  0  0  0
    2.1362   -2.4870    0.0000 N   0  0  0  0  0  0  0  0  0  0  0  0
    1.4284   -2.0597    0.0000 C   0  0  0  0  0  0  0  0  0  0  0  0
    1.4284   -3.7176    0.0000 C   0  0  0  0  0  0  0  0  0  0  0  0
    0.7142   -3.2968    0.0000 C   0  0  0  0  0  0  0  0  0  0  0  0
    2.1362   -3.2968    0.0000 C   0  0  0  0  0  0  0  0  0  0  0  0
    2.9333   -2.2191    0.0000 N   0  0  0  0  0  0  0  0  0  0  0  0
    3.4179   -2.8950    0.0000 C   0  0  0  0  0  0  0  0  0  0  0  0
    2.9333   -3.5582    0.0000 N   0  0  0  0  0  0  0  0  0  0  0  0
    4.2278   -2.8950    0.0000 S   0  0  0  0  0  0  0  0  0  0  0  0
    4.2278   -2.0597    0.0000 O   0  0  0  0  0  0  0  0  0  0  0  0
    5.0568   -2.8950    0.0000 O   0  0  0  0  0  0  0  0  0  0  0  0
    4.2278   -3.7176    0.0000 N   0  0  0  0  0  0  0  0  0  0  0  0
    4.9420   -4.1194    0.0000 C   0  0  0  0  0  0  0  0  0  0  0  0
    5.6626   -3.7176    0.0000 C   0  0  0  0  0  0  0  0  0  0  0  0
    4.9420   -4.9420    0.0000 C   0  0  0  0  0  0  0  0  0  0  0  0
    6.3767   -4.1194    0.0000 C   0  0  0  0  0  0  0  0  0  0  0  0
    5.6626   -5.3692    0.0000 C   0  0  0  0  0  0  0  0  0  0  0  0
    6.3767   -4.9420    0.0000 C   0  0  0  0  0  0  0  0  0  0  0  0
    5.6626   -2.8950    0.0000 Cl  0  0  0  0  0  0  0  0  0  0  0  0
    4.2278   -5.3692    0.0000 Cl  0  0  0  0  0  0  0  0  0  0  0  0
    1.4284   -1.2371    0.0000 O   0  0  0  0  0  0  0  0  0  0  0  0
    0.7142   -0.8353    0.0000 C   0  0  0  0  0  0  0  0  0  0  0  0
    0.7142    0.0000    0.0000 C   0  0  0  0  0  0  0  0  0  0  0  0
    0.0000   -3.7176    0.0000 F   0  0  0  0  0  0  0  0  0  0  0  0
  1  3  2  0
  1  5  1  0
  2  3  1  0
  2  6  1  0
  2  7  1  0
  3 22  1  0
  4  5  2  0
  4  6  1  0
  5 25  1  0
  6  9  2  0
  7  8  2  0
  8  9  1  0
  8 10  1  0
 10 11  2  0
 10 13  1  0
 10 12  2  0
 13 14  1  0
 14 15  2  0
 14 16  1  0
 15 17  1  0
 15 20  1  0
 16 18  2  0
 16 21  1  0
 17 19  2  0
 18 19  1  0
 22 23  1  0
 23 24  1  0
M  END
>  <Formula>  (257) 
C13H10Cl2FN5O3S

>  <FW>  (257) 
406.2196

>  <DSSTox_CID>  (257) 
14528

>  <NR-AR>  (257) 
0

>  <NR-AR-LBD>  (257) 
0

>  <NR-ER>  (257) 
0

>  <NR-ER-LBD>  (257) 
0

>  <NR-PPAR-gamma>  (257) 
1

>  <SR-ARE>  (257) 
0

>  <SR-ATAD5>  (257) 
0

>  <SR-HSE>  (257) 
0

>  <SR-MMP>  (257) 
0

>  <SR-p53>  (257) 
0

$$$$
NCGC00167436-02
     RDKit          2D

 43 47  0  0  0  0  0  0  0  0999 V2000
    2.8632   -4.2271    0.0000 C   0  0  0  0  0  0  0  0  0  0  0  0
    2.8632   -5.0486    0.0000 N   0  0  0  0  0  0  0  0  0  0  0  0
    3.6847   -5.0486    0.0000 C   0  0  0  0  0  0  0  0  0  0  0  0
    3.6847   -4.2271    0.0000 C   0  0  0  0  0  0  0  0  0  0  0  0
    3.7166   -1.6430    0.0000 C   0  0  0  0  0  0  0  0  0  0  0  0
    3.7166   -2.4645    0.0000 C   0  0  0  0  0  0  0  0  0  0  0  0
    4.4185   -2.8712    0.0000 C   0  0  0  0  0  0  0  0  0  0  0  0
    5.1363   -2.4645    0.0000 C   0  0  0  0  0  0  0  0  0  0  0  0
    5.1363   -1.6430    0.0000 C   0  0  0  0  0  0  0  0  0  0  0  0
    4.4185   -1.2282    0.0000 C   0  0  0  0  0  0  0  0  0  0  0  0
    2.9988   -2.8712    0.0000 N   0  0  0  0  0  0  0  0  0  0  0  0
    2.9988   -3.6927    0.0000 O   0  0  0  0  0  0  0  0  0  0  0  0
    2.2970   -2.4645    0.0000 O   0  0  0  0  0  0  0  0  0  0  0  0
    5.8382   -2.8712    0.0000 C   0  0  0  0  0  0  0  0  0  0  0  0
    5.8382   -3.6927    0.0000 C   0  0  0  0  0  0  0  0  0  0  0  0
    6.5559   -4.0995    0.0000 C   0  0  0  0  0  0  0  0  0  0  0  0
    7.2578   -3.6927    0.0000 N   0  0  0  0  0  0  0  0  0  0  0  0
    7.2578   -2.8712    0.0000 C   0  0  0  0  0  0  0  0  0  0  0  0
    6.5559   -2.4645    0.0000 C   0  0  0  0  0  0  0  0  0  0  0  0
    7.9756   -2.4645    0.0000 C   0  0  0  0  0  0  0  0  0  0  0  0
    6.5559   -1.6430    0.0000 C   0  0  0  0  0  0  0  0  0  0  0  0
    7.2578   -1.2282    0.0000 O   0  0  0  0  0  0  0  0  0  0  0  0
    5.8382   -1.2282    0.0000 O   0  0  0  0  0  0  0  0  0  0  0  0
    5.8382   -0.4147    0.0000 C   0  0  0  0  0  0  0  0  0  0  0  0
    6.5559    0.0000    0.0000 C   0  0  0  0  0  0  0  0  0  0  0  0
    5.1363    0.0000    0.0000 C   0  0  0  0  0  0  0  0  0  0  0  0
    6.5559   -4.9210    0.0000 N   0  0  0  0  0  0  0  0  0  0  0  0
    5.1123   -4.0995    0.0000 C   0  0  0  0  0  0  0  0  0  0  0  0
    4.3866   -3.6927    0.0000 O   0  0  0  0  0  0  0  0  0  0  0  0
    5.1123   -4.9210    0.0000 O   0  0  0  0  0  0  0  0  0  0  0  0
    2.1454   -5.4553    0.0000 C   0  0  0  0  0  0  0  0  0  0  0  0
    1.4276   -5.0486    0.0000 C   0  0  0  0  0  0  0  0  0  0  0  0
    2.1454   -6.2927    0.0000 C   0  0  0  0  0  0  0  0  0  0  0  0
    0.7178   -5.4553    0.0000 C   0  0  0  0  0  0  0  0  0  0  0  0
    0.0000   -5.0486    0.0000 C   0  0  0  0  0  0  0  0  0  0  0  0
    0.0000   -4.2191    0.0000 C   0  0  0  0  0  0  0  0  0  0  0  0
    0.7178   -3.8123    0.0000 C   0  0  0  0  0  0  0  0  0  0  0  0
    1.4276   -4.2191    0.0000 C   0  0  0  0  0  0  0  0  0  0  0  0
    2.8632   -6.6915    0.0000 C   0  0  0  0  0  0  0  0  0  0  0  0
    2.8632   -7.5290    0.0000 C   0  0  0  0  0  0  0  0  0  0  0  0
    2.1454   -7.9437    0.0000 C   0  0  0  0  0  0  0  0  0  0  0  0
    1.4276   -7.5290    0.0000 C   0  0  0  0  0  0  0  0  0  0  0  0
    1.4276   -6.6915    0.0000 C   0  0  0  0  0  0  0  0  0  0  0  0
  1  2  1  0
  1  4  1  0
  2  3  1  0
  2 31  1  0
  3  4  1  0
  4 29  1  0
  5  6  2  0
  5 10  1  0
  6 11  1  0
  6  7  1  0
  7  8  2  0
  8 14  1  0
  8  9  1  0
  9 10  2  0
 11 12  1  0
 11 13  2  0
 14 15  1  0
 14 19  1  0
 15 28  1  0
 15 16  2  0
 16 27  1  0
 16 17  1  0
 17 18  1  0
 18 19  2  0
 18 20  1  0
 19 21  1  0
 21 22  2  0
 21 23  1  0
 23 24  1  0
 24 25  1  0
 24 26  1  0
 28 29  1  0
 28 30  2  0
 31 32  1  0
 31 33  1  0
 32 34  2  0
 32 38  1  0
 33 39  2  0
 33 43  1  0
 34 35  1  0
 35 36  2  0
 36 37  1  0
 37 38  2  0
 39 40  1  0
 40 41  2  0
 41 42  1  0
 42 43  2  0
M  CHG  2  11   1  12  -1
M  END
>  <Formula>  (258) 
C33H34N4O6

>  <FW>  (258) 
582.6463

>  <DSSTox_CID>  (258) 
120

>  <SR-ARE>  (258) 
1

$$$$
NCGC00015619-13
     RDKit          2D

 27 30  0  0  0  0  0  0  0  0999 V2000
    3.1946   -2.8579    0.0000 C   0  0  0  0  0  0  0  0  0  0  0  0
    2.4838   -2.4390    0.0000 C   0  0  0  0  0  0  0  0  0  0  0  0
    2.5362   -1.6309    0.0000 C   0  0  0  0  0  0  0  0  0  0  0  0
    1.9527   -1.0474    0.0000 C   0  0  0  0  0  0  0  0  0  0  0  0
    1.1222   -1.1821    0.0000 C   0  0  0  0  0  0  0  0  0  0  0  0
    0.7107   -1.8928    0.0000 C   0  0  0  0  0  0  0  0  0  0  0  0
    1.0025   -2.6559    0.0000 C   0  0  0  0  0  0  0  0  0  0  0  0
    1.8030   -2.9028    0.0000 C   0  0  0  0  0  0  0  0  0  0  0  0
    1.9751   -3.6958    0.0000 C   0  0  0  0  0  0  0  0  0  0  0  0
    1.3916   -4.2793    0.0000 C   0  0  0  0  0  0  0  0  0  0  0  0
    0.5835   -4.0175    0.0000 C   0  0  0  0  0  0  0  0  0  0  0  0
    0.0000   -4.6011    0.0000 Cl  0  0  0  0  0  0  0  0  0  0  0  0
    0.4190   -3.2319    0.0000 C   0  0  0  0  0  0  0  0  0  0  0  0
    2.1247   -0.2544    0.0000 C   0  0  0  0  0  0  0  0  0  0  0  0
    2.9252    0.0000    0.0000 C   0  0  0  0  0  0  0  0  0  0  0  0
    3.5088   -0.5835    0.0000 C   0  0  0  0  0  0  0  0  0  0  0  0
    3.3293   -1.3766    0.0000 N   0  0  0  0  0  0  0  0  0  0  0  0
    3.9128   -2.4390    0.0000 C   0  0  0  0  0  0  0  0  0  0  0  0
    4.6235   -2.8579    0.0000 C   0  0  0  0  0  0  0  0  0  0  0  0
    4.6235   -3.6809    0.0000 N   0  0  0  0  0  0  0  0  0  0  0  0
    5.3417   -4.0924    0.0000 C   0  0  0  0  0  0  0  0  0  0  0  0
    5.3417   -4.9153    0.0000 O   0  0  0  0  0  0  0  0  0  0  0  0
    6.0525   -3.6809    0.0000 O   0  0  0  0  0  0  0  0  0  0  0  0
    6.7707   -4.0924    0.0000 C   0  0  0  0  0  0  0  0  0  0  0  0
    7.4814   -3.6809    0.0000 C   0  0  0  0  0  0  0  0  0  0  0  0
    3.9128   -4.0924    0.0000 C   0  0  0  0  0  0  0  0  0  0  0  0
    3.1946   -3.6809    0.0000 C   0  0  0  0  0  0  0  0  0  0  0  0
  1  2  2  0
  1 18  1  0
  1 27  1  0
  2  3  1  0
  2  8  1  0
  3  4  2  0
  3 17  1  0
  4  5  1  0
  4 14  1  0
  5  6  1  0
  6  7  1  0
  7  8  2  0
  7 13  1  0
  8  9  1  0
  9 10  2  0
 10 11  1  0
 11 12  1  0
 11 13  2  0
 14 15  2  0
 15 16  1  0
 16 17  2  0
 18 19  1  0
 19 20  1  0
 20 21  1  0
 20 26  1  0
 21 22  2  0
 21 23  1  0
 23 24  1  0
 24 25  1  0
 26 27  1  0
M  END
>  <Formula>  (259) 
C22H23ClN2O2

>  <FW>  (259) 
382.8832

>  <DSSTox_CID>  (259) 
3224

>  <SR-ARE>  (259) 
1

$$$$
NCGC00167729-03
     RDKit          2D

 28 31  0  0  0  0  0  0  0  0999 V2000
    2.2221   -2.2302    0.0000 N   0  0  0  0  0  0  0  0  0  0  0  0
    2.7024   -2.8977    0.0000 C   0  0  0  0  0  0  0  0  0  0  0  0
    4.7617   -3.5977    0.0000 C   0  0  0  0  0  0  0  0  0  0  0  0
    5.2501   -2.9384    0.0000 N   0  0  0  0  0  0  0  0  0  0  0  0
    3.5326   -2.8977    0.0000 C   0  0  0  0  0  0  0  0  0  0  0  0
    6.0396   -3.1989    0.0000 C   0  0  0  0  0  0  0  0  0  0  0  0
    3.9396   -3.5977    0.0000 N   0  0  0  0  0  0  0  0  0  0  0  0
    2.2221   -3.5489    0.0000 C   0  0  0  0  0  0  0  0  0  0  0  0
    1.4407   -2.4745    0.0000 C   0  0  0  0  0  0  0  0  0  0  0  0
    5.2501   -4.2815    0.0000 S   0  0  0  0  0  0  0  0  0  0  0  0
    1.4407   -3.3047    0.0000 C   0  0  0  0  0  0  0  0  0  0  0  0
    6.6989   -2.6943    0.0000 C   0  0  0  0  0  0  0  0  0  0  0  0
    6.0396   -4.0292    0.0000 C   0  0  0  0  0  0  0  0  0  0  0  0
    2.4826   -1.4326    0.0000 C   0  0  0  0  0  0  0  0  0  0  0  0
    2.0594   -0.7244    0.0000 C   0  0  0  0  0  0  0  0  0  0  0  0
    3.9396   -2.1733    0.0000 O   0  0  0  0  0  0  0  0  0  0  0  0
    6.6989   -1.8721    0.0000 C   0  0  0  0  0  0  0  0  0  0  0  0
    2.4826    0.0000    0.0000 O   0  0  0  0  0  0  0  0  0  0  0  0
    5.9827   -1.4733    0.0000 Cl  0  0  0  0  0  0  0  0  0  0  0  0
    1.2372   -0.7244    0.0000 O   0  0  0  0  0  0  0  0  0  0  0  0
    0.7082   -2.0756    0.0000 C   0  0  0  0  0  0  0  0  0  0  0  0
    7.4071   -3.1175    0.0000 C   0  0  0  0  0  0  0  0  0  0  0  0
    0.7082   -3.7198    0.0000 C   0  0  0  0  0  0  0  0  0  0  0  0
    7.4071   -1.4733    0.0000 C   0  0  0  0  0  0  0  0  0  0  0  0
    8.1397   -2.6943    0.0000 C   0  0  0  0  0  0  0  0  0  0  0  0
    0.0000   -2.4745    0.0000 C   0  0  0  0  0  0  0  0  0  0  0  0
    0.0000   -3.3047    0.0000 C   0  0  0  0  0  0  0  0  0  0  0  0
    8.1397   -1.8721    0.0000 C   0  0  0  0  0  0  0  0  0  0  0  0
  1  2  1  0
  1  9  1  0
  1 14  1  0
  2  5  1  0
  2  8  2  0
  3  7  1  0
  3  4  2  0
  3 10  1  0
  4  6  1  0
  5  7  1  0
  5 16  2  0
  6 12  1  0
  6 13  2  0
  8 11  1  0
  9 11  2  0
  9 21  1  0
 10 13  1  0
 11 23  1  0
 12 17  2  0
 12 22  1  0
 14 15  1  0
 15 18  2  0
 15 20  1  0
 17 19  1  0
 17 24  1  0
 21 26  2  0
 22 25  2  0
 23 27  2  0
 24 28  2  0
 25 28  1  0
 26 27  1  0
M  END
>  <Formula>  (260) 
C20H14ClN3O3S

>  <FW>  (260) 
411.8615

>  <DSSTox_CID>  (260) 
26738

>  <SR-ARE>  (260) 
1

$$$$
NCGC00179578-03
     RDKit          2D

 35 39  0  0  1  0  0  0  0  0999 V2000
    4.3013   -2.1755    0.0000 C   0  0  0  0  0  0  0  0  0  0  0  0
    5.0871   -1.9191    0.0000 C   0  0  0  0  0  0  0  0  0  0  0  0
    2.8869   -3.0110    0.0000 C   0  0  0  0  0  0  0  0  0  0  0  0
    2.1672   -3.4245    0.0000 C   0  0  0  0  0  0  0  0  0  0  0  0
    4.3013   -3.0110    0.0000 C   0  0  0  0  0  0  0  0  0  0  0  0
    3.5899   -3.4245    0.0000 C   0  0  0  0  0  0  0  0  0  0  0  0
    2.1672   -4.2600    0.0000 C   0  0  0  0  0  0  0  0  0  0  0  0
    5.9226   -1.9191    0.0000 O   0  0  0  0  0  0  0  0  0  0  0  0
    2.8869   -2.1755    0.0000 C   0  0  0  0  0  0  0  0  0  0  0  0
    3.5899   -1.7701    0.0000 C   0  0  0  0  0  0  0  0  0  0  0  0
    5.5752   -2.6056    0.0000 C   0  0  0  0  0  0  0  0  0  0  0  0
    6.7498   -1.9191    0.0000 C   0  0  0  0  0  0  0  0  0  0  0  0
    1.4724   -3.0110    0.0000 C   0  0  0  0  0  0  0  0  0  0  0  0
    5.0871   -3.2591    0.0000 C   0  0  0  0  0  0  0  0  0  0  0  0
    7.2048   -1.2573    0.0000 C   0  0  0  0  0  0  0  0  0  0  0  0
    1.4724   -4.6653    0.0000 C   0  0  0  0  0  0  0  0  0  0  0  0
    5.3188   -1.1332    0.0000 C   0  0  0  0  0  0  0  0  0  0  0  0
    3.5899   -4.2600    0.0000 C   0  0  0  0  0  0  0  0  0  0  0  0
    0.7362   -3.4245    0.0000 C   0  0  0  0  0  0  0  0  0  0  0  0
    0.7362   -4.2600    0.0000 C   0  0  0  0  0  0  0  0  0  0  0  0
    8.0154   -1.2656    0.0000 O   0  0  0  0  0  0  0  0  0  0  0  0
    2.8869   -4.6653    0.0000 C   0  0  0  0  0  0  0  0  0  0  0  0
    7.2048   -2.6056    0.0000 O   0  0  0  0  0  0  0  0  0  0  0  0
    6.9483   -0.4550    0.0000 C   0  0  0  0  0  0  0  0  0  0  0  0
    2.8951   -3.7968    0.0000 Cl  0  0  0  0  0  0  0  0  0  0  0  0
    4.7398   -0.5294    0.0000 O   0  0  0  0  0  0  0  0  0  0  0  0
    8.2718   -0.4550    0.0000 C   0  0  0  0  0  0  0  0  0  0  0  0
    7.5936    0.0000    0.0000 C   0  0  0  0  0  0  0  0  0  0  0  0
    0.0000   -4.6736    0.0000 O   0  0  0  0  0  0  0  0  0  0  0  0
    4.3013   -1.3400    0.0000 C   0  0  0  0  0  0  0  0  0  0  0  0
    2.1589   -1.7619    0.0000 O   0  0  0  0  0  0  0  0  0  0  0  0
    2.1672   -2.6056    0.0000 C   0  0  0  0  0  0  0  0  0  0  0  0
    6.1129   -0.9264    0.0000 C   0  0  0  0  0  0  0  0  0  0  0  0
    6.3114   -0.1075    0.0000 Cl  0  0  0  0  0  0  0  0  0  0  0  0
    6.4106   -2.5974    0.0000 C   0  0  0  0  0  0  0  0  0  0  0  0
  1  2  1  0
  1  5  1  0
  1 10  1  0
  1 30  1  1
  2  8  1  6
  2 11  1  0
  2 17  1  0
  3  9  1  0
  3  4  1  0
  3 25  1  6
  3  6  1  0
  4  7  1  0
  4 13  1  0
  4 32  1  1
  5  6  1  0
  5 14  1  1
  6 18  1  6
  7 16  2  0
  7 22  1  0
  8 12  1  0
  9 10  1  0
  9 31  1  1
 11 35  1  6
 11 14  1  0
 12 15  1  0
 12 23  2  0
 13 19  2  0
 15 21  1  0
 15 24  2  0
 16 20  1  0
 17 26  2  0
 17 33  1  0
 18 22  1  0
 19 20  1  0
 20 29  2  0
 21 27  1  0
 24 28  1  0
 27 28  2  0
 33 34  1  0
M  END
>  <Formula>  (261) 
C27H30Cl2O6

>  <FW>  (261) 
521.4295

>  <DSSTox_CID>  (261) 
3333

>  <SR-ARE>  (261) 
1

$$$$
NCGC00159551-02
     RDKit          2D

 31 35  0  0  1  0  0  0  0  0999 V2000
    2.0730   -2.6653    0.0000 C   0  0  0  0  0  0  0  0  0  0  0  0
    1.4327   -2.1450    0.0000 C   0  0  0  0  0  0  0  0  0  0  0  0
    1.8729   -3.4577    0.0000 C   0  0  0  0  0  0  0  0  0  0  0  0
    2.8734   -2.4732    0.0000 N   0  0  0  0  0  0  0  0  0  0  0  0
    1.4327   -1.3207    0.0000 C   0  0  0  0  0  0  0  0  0  0  0  0
    0.7124   -2.5532    0.0000 C   0  0  0  0  0  0  0  0  0  0  0  0
    2.4892   -4.0259    0.0000 C   0  0  0  0  0  0  0  0  0  0  0  0
    1.0885   -3.7058    0.0000 C   0  0  0  0  0  0  0  0  0  0  0  0
    3.2336   -1.7288    0.0000 C   0  0  0  0  0  0  0  0  0  0  0  0
    2.0730   -0.8084    0.0000 N   0  0  0  0  0  0  0  0  0  0  0  0
    0.7124   -0.9044    0.0000 C   0  0  0  0  0  0  0  0  0  0  0  0
    0.0000   -2.1450    0.0000 C   0  0  0  0  0  0  0  0  0  0  0  0
    2.3131   -4.8183    0.0000 C   0  0  0  0  0  0  0  0  0  0  0  0
    0.9204   -4.5141    0.0000 C   0  0  0  0  0  0  0  0  0  0  0  0
    2.8734   -0.9844    0.0000 C   0  0  0  0  0  0  0  0  0  0  0  0
    4.0580   -1.7288    0.0000 N   0  0  0  0  0  0  0  0  0  0  0  0
    1.8729    0.0000    0.0000 C   0  0  0  0  0  0  0  0  0  0  0  0
    0.0000   -1.3207    0.0000 C   0  0  0  0  0  0  0  0  0  0  0  0
    1.5207   -5.0664    0.0000 C   0  0  0  0  0  0  0  0  0  0  0  0
    3.3936   -0.3281    0.0000 O   0  0  0  0  0  0  0  0  0  0  0  0
    4.4821   -2.4412    0.0000 C   0  0  0  0  0  0  0  0  0  0  0  0
    5.3065   -2.4412    0.0000 C   0  0  0  0  0  0  0  0  0  0  0  0
    4.0580   -3.1695    0.0000 O   0  0  0  0  0  0  0  0  0  0  0  0
    5.7787   -1.7768    0.0000 C   0  0  0  0  0  0  0  0  0  0  0  0
    5.7787   -3.1215    0.0000 N   0  0  0  0  0  0  0  0  0  0  0  0
    6.5711   -2.0410    0.0000 C   0  0  0  0  0  0  0  0  0  0  0  0
    6.5711   -2.8654    0.0000 C   0  0  0  0  0  0  0  0  0  0  0  0
    7.2755   -1.6088    0.0000 C   0  0  0  0  0  0  0  0  0  0  0  0
    7.2755   -3.2656    0.0000 C   0  0  0  0  0  0  0  0  0  0  0  0
    8.0038   -2.0410    0.0000 C   0  0  0  0  0  0  0  0  0  0  0  0
    8.0038   -2.8654    0.0000 C   0  0  0  0  0  0  0  0  0  0  0  0
  1  2  1  0
  1  3  1  0
  1  4  2  0
  2  5  2  0
  2  6  1  0
  3  7  2  0
  3  8  1  0
  4  9  1  0
  5 10  1  0
  5 11  1  0
  6 12  2  0
  7 13  1  0
  8 14  2  0
  9 15  1  0
  9 16  1  1
 10 17  1  0
 10 15  1  0
 11 18  2  0
 12 18  1  0
 13 19  2  0
 14 19  1  0
 15 20  2  0
 16 21  1  0
 21 22  1  0
 21 23  2  0
 22 24  2  0
 22 25  1  0
 24 26  1  0
 25 27  1  0
 26 28  2  0
 26 27  1  0
 27 29  2  0
 28 30  1  0
 29 31  1  0
 30 31  2  0
M  END
>  <Formula>  (262) 
C25H20N4O2

>  <FW>  (262) 
408.4519

>  <DSSTox_CID>  (262) 
26092

>  <SR-ARE>  (262) 
1

$$$$
NCGC00274060-01
     RDKit          2D

 51 57  0  0  1  0  0  0  0  0999 V2000
    4.6030   -1.3294    0.0000 C   0  0  0  0  0  0  0  0  0  0  0  0
    5.3673   -1.3294    0.0000 C   0  0  0  0  0  0  0  0  0  0  0  0
    5.8160   -2.0439    0.0000 C   0  0  0  0  0  0  0  0  0  0  0  0
    5.3673   -2.7086    0.0000 C   0  0  0  0  0  0  0  0  0  0  0  0
    4.6030   -2.7086    0.0000 C   0  0  0  0  0  0  0  0  0  0  0  0
    4.1543   -2.0439    0.0000 C   0  0  0  0  0  0  0  0  0  0  0  0
    6.5804   -2.0439    0.0000 N   0  0  0  0  0  0  0  0  0  0  0  0
    7.0291   -1.3294    0.0000 C   0  0  0  0  0  0  0  0  0  0  0  0
    7.8100   -1.3294    0.0000 C   0  0  0  0  0  0  0  0  0  0  0  0
    8.1923   -2.0439    0.0000 N   0  0  0  0  0  0  0  0  0  0  0  0
    7.8100   -2.7086    0.0000 C   0  0  0  0  0  0  0  0  0  0  0  0
    7.0291   -2.7086    0.0000 C   0  0  0  0  0  0  0  0  0  0  0  0
    9.0231   -2.0439    0.0000 C   0  0  0  0  0  0  0  0  0  0  0  0
    9.4219   -1.3294    0.0000 C   0  0  0  0  0  0  0  0  0  0  0  0
   10.2528   -1.3294    0.0000 C   0  0  0  0  0  0  0  0  0  0  0  0
   10.6848   -2.0439    0.0000 C   0  0  0  0  0  0  0  0  0  0  0  0
   10.2528   -2.7086    0.0000 C   0  0  0  0  0  0  0  0  0  0  0  0
    9.4219   -2.7086    0.0000 C   0  0  0  0  0  0  0  0  0  0  0  0
    3.3899   -2.0439    0.0000 N   0  0  0  0  0  0  0  0  0  0  0  0
    2.8748   -1.3792    0.0000 C   0  0  0  0  0  0  0  0  0  0  0  0
    2.1104   -1.5952    0.0000 N   0  0  0  0  0  0  0  0  0  0  0  0
    2.1104   -2.4261    0.0000 N   0  0  0  0  0  0  0  0  0  0  0  0
    2.8748   -2.7086    0.0000 C   0  0  0  0  0  0  0  0  0  0  0  0
    1.4457   -1.2130    0.0000 C   0  0  0  0  0  0  0  0  0  0  0  0
    1.4457   -0.3822    0.0000 C   0  0  0  0  0  0  0  0  0  0  0  0
    0.7145   -1.5952    0.0000 C   0  0  0  0  0  0  0  0  0  0  0  0
    0.7145   -2.4261    0.0000 O   0  0  0  0  0  0  0  0  0  0  0  0
    0.0000   -1.2130    0.0000 C   0  0  0  0  0  0  0  0  0  0  0  0
   11.4658   -2.0439    0.0000 O   0  0  0  0  0  0  0  0  0  0  0  0
   11.9145   -1.3294    0.0000 C   0  0  0  0  0  0  0  0  0  0  0  0
   12.6789   -1.3294    0.0000 C   0  0  0  0  0  0  0  0  0  0  0  0
   13.1774   -1.9941    0.0000 C   0  0  0  0  0  0  0  0  0  0  0  0
   13.9584   -1.7282    0.0000 C   0  0  0  0  0  0  0  0  0  0  0  0
   13.9584   -0.9472    0.0000 O   0  0  0  0  0  0  0  0  0  0  0  0
   13.1774   -0.6647    0.0000 C   0  0  0  0  0  0  0  0  0  0  0  0
    3.1572   -0.6148    0.0000 O   0  0  0  0  0  0  0  0  0  0  0  0
    0.7145    0.0000    0.0000 C   0  0  0  0  0  0  0  0  0  0  0  0
   13.9584   -2.5591    0.0000 C   0  0  0  0  0  0  0  0  0  0  0  0
   14.6231   -1.3294    0.0000 C   0  0  0  0  0  0  0  0  0  0  0  0
   14.6730   -2.9412    0.0000 C   0  0  0  0  0  0  0  0  0  0  0  0
   13.2272   -2.9412    0.0000 C   0  0  0  0  0  0  0  0  0  0  0  0
   14.6730   -3.7721    0.0000 C   0  0  0  0  0  0  0  0  0  0  0  0
   13.2272   -3.7721    0.0000 C   0  0  0  0  0  0  0  0  0  0  0  0
   13.9584   -4.1543    0.0000 C   0  0  0  0  0  0  0  0  0  0  0  0
   12.5792   -2.5591    0.0000 F   0  0  0  0  0  0  0  0  0  0  0  0
   13.9584   -4.9851    0.0000 F   0  0  0  0  0  0  0  0  0  0  0  0
   15.3376   -1.7282    0.0000 N   0  0  0  0  0  0  0  0  0  0  0  0
   15.4539   -2.5591    0.0000 N   0  0  0  0  0  0  0  0  0  0  0  0
   16.0688   -1.3792    0.0000 C   0  0  0  0  0  0  0  0  0  0  0  0
   16.2349   -2.7086    0.0000 C   0  0  0  0  0  0  0  0  0  0  0  0
   16.6172   -1.9941    0.0000 N   0  0  0  0  0  0  0  0  0  0  0  0
  1  6  2  0
  1  2  1  0
  2  3  2  0
  3  7  1  0
  3  4  1  0
  4  5  2  0
  5  6  1  0
  6 19  1  0
  7 12  1  0
  7  8  1  0
  8  9  1  0
  9 10  1  0
 10 13  1  0
 10 11  1  0
 11 12  1  0
 13 14  2  0
 13 18  1  0
 14 15  1  0
 15 16  2  0
 16 29  1  0
 16 17  1  0
 17 18  2  0
 19 20  1  0
 19 23  1  0
 20 21  1  0
 20 36  2  0
 21 24  1  0
 21 22  1  0
 22 23  2  0
 24 25  1  6
 24 26  1  0
 25 37  1  0
 26 27  1  0
 26 28  1  1
 29 30  1  0
 30 31  1  0
 31 32  1  0
 31 35  1  0
 32 33  1  0
 33 34  1  0
 33 38  1  0
 33 39  1  6
 34 35  1  0
 38 40  2  0
 38 41  1  0
 39 47  1  0
 40 42  1  0
 41 43  2  0
 41 45  1  0
 42 44  2  0
 43 44  1  0
 44 46  1  0
 47 48  1  0
 47 49  1  0
 48 50  2  0
 49 51  2  0
 50 51  1  0
M  END
>  <Formula>  (263) 
C37H42F2N8O4

>  <FW>  (263) 
700.7774

>  <DSSTox_CID>  (263) 
28992

>  <SR-ARE>  (263) 
1

>  <SR-HSE>  (263) 
0

$$$$
NCGC00263529-01
     RDKit          2D

 33 34  0  0  0  0  0  0  0  0999 V2000
    2.8589   -3.5607    0.0000 C   0  0  0  0  0  0  0  0  0  0  0  0
    2.8589   -4.3824    0.0000 C   0  0  0  0  0  0  0  0  0  0  0  0
    3.5778   -4.8018    0.0000 N   0  0  0  0  0  0  0  0  0  0  0  0
    4.2797   -4.3824    0.0000 C   0  0  0  0  0  0  0  0  0  0  0  0
    4.2797   -3.5607    0.0000 C   0  0  0  0  0  0  0  0  0  0  0  0
    3.5778   -3.1413    0.0000 C   0  0  0  0  0  0  0  0  0  0  0  0
    4.9816   -3.1413    0.0000 C   0  0  0  0  0  0  0  0  0  0  0  0
    5.7005   -3.5521    0.0000 O   0  0  0  0  0  0  0  0  0  0  0  0
    4.9816   -2.3282    0.0000 O   0  0  0  0  0  0  0  0  0  0  0  0
    6.4024   -3.1413    0.0000 C   0  0  0  0  0  0  0  0  0  0  0  0
    7.1214   -3.5521    0.0000 C   0  0  0  0  0  0  0  0  0  0  0  0
    4.9816   -4.8018    0.0000 C   0  0  0  0  0  0  0  0  0  0  0  0
    2.1484   -3.1413    0.0000 C   0  0  0  0  0  0  0  0  0  0  0  0
    1.4294   -3.5521    0.0000 O   0  0  0  0  0  0  0  0  0  0  0  0
    2.1484   -2.3367    0.0000 O   0  0  0  0  0  0  0  0  0  0  0  0
    0.7275   -3.1413    0.0000 C   0  0  0  0  0  0  0  0  0  0  0  0
    0.0000   -3.5521    0.0000 C   0  0  0  0  0  0  0  0  0  0  0  0
    2.1484   -4.8018    0.0000 C   0  0  0  0  0  0  0  0  0  0  0  0
    2.8503   -0.4109    0.0000 C   0  0  0  0  0  0  0  0  0  0  0  0
    2.8503   -1.2582    0.0000 C   0  0  0  0  0  0  0  0  0  0  0  0
    3.5778   -1.6862    0.0000 C   0  0  0  0  0  0  0  0  0  0  0  0
    4.2968   -1.2582    0.0000 C   0  0  0  0  0  0  0  0  0  0  0  0
    4.2968   -0.4109    0.0000 C   0  0  0  0  0  0  0  0  0  0  0  0
    3.5778    0.0000    0.0000 C   0  0  0  0  0  0  0  0  0  0  0  0
    4.9987   -1.6776    0.0000 C   0  0  0  0  0  0  0  0  0  0  0  0
    5.7091   -1.2582    0.0000 C   0  0  0  0  0  0  0  0  0  0  0  0
    6.4110   -1.6776    0.0000 C   0  0  0  0  0  0  0  0  0  0  0  0
    7.1300   -1.2496    0.0000 O   0  0  0  0  0  0  0  0  0  0  0  0
    6.4110   -2.4908    0.0000 O   0  0  0  0  0  0  0  0  0  0  0  0
    7.8404   -1.6605    0.0000 C   0  0  0  0  0  0  0  0  0  0  0  0
    7.4467   -2.3624    0.0000 C   0  0  0  0  0  0  0  0  0  0  0  0
    8.5594   -2.0628    0.0000 C   0  0  0  0  0  0  0  0  0  0  0  0
    8.2512   -0.9501    0.0000 C   0  0  0  0  0  0  0  0  0  0  0  0
  1  6  1  0
  1 13  1  0
  1  2  2  0
  2 18  1  0
  2  3  1  0
  3  4  1  0
  4  5  2  0
  4 12  1  0
  5  6  1  0
  5  7  1  0
  6 21  1  0
  7  8  1  0
  7  9  2  0
  8 10  1  0
 10 11  1  0
 13 14  1  0
 13 15  2  0
 14 16  1  0
 16 17  1  0
 19 20  2  0
 19 24  1  0
 20 21  1  0
 21 22  2  0
 22 23  1  0
 22 25  1  0
 23 24  2  0
 25 26  2  0
 26 27  1  0
 27 28  1  0
 27 29  2  0
 28 30  1  0
 30 31  1  0
 30 32  1  0
 30 33  1  0
M  END
>  <Formula>  (264) 
C26H33NO6

>  <FW>  (264) 
455.5433

>  <DSSTox_CID>  (264) 
26429

>  <SR-ARE>  (264) 
1

>  <SR-HSE>  (264) 
1

$$$$
NCGC00167507-04
     RDKit          2D

 40 44  0  0  0  0  0  0  0  0999 V2000
    1.0347   -1.2297    0.0000 C   0  0  0  0  0  0  0  0  0  0  0  0
    0.7798   -2.0094    0.0000 S   0  0  0  0  0  0  0  0  0  0  0  0
    0.5249   -2.7893    0.0000 O   0  0  0  0  0  0  0  0  0  0  0  0
    0.0000   -1.7395    0.0000 O   0  0  0  0  0  0  0  0  0  0  0  0
    1.5746   -2.2494    0.0000 C   0  0  0  0  0  0  0  0  0  0  0  0
    2.1744   -1.7095    0.0000 C   0  0  0  0  0  0  0  0  0  0  0  0
    2.9692   -1.9645    0.0000 N   0  0  0  0  0  0  0  0  0  0  0  0
    3.5840   -1.4096    0.0000 C   0  0  0  0  0  0  0  0  0  0  0  0
    4.3638   -1.6495    0.0000 C   0  0  0  0  0  0  0  0  0  0  0  0
    4.6337   -2.4443    0.0000 C   0  0  0  0  0  0  0  0  0  0  0  0
    5.4586   -2.4443    0.0000 C   0  0  0  0  0  0  0  0  0  0  0  0
    5.6985   -1.6495    0.0000 C   0  0  0  0  0  0  0  0  0  0  0  0
    5.0387   -1.1697    0.0000 O   0  0  0  0  0  0  0  0  0  0  0  0
    6.4183   -1.2447    0.0000 C   0  0  0  0  0  0  0  0  0  0  0  0
    7.1381   -1.6495    0.0000 C   0  0  0  0  0  0  0  0  0  0  0  0
    7.8429   -1.2447    0.0000 C   0  0  0  0  0  0  0  0  0  0  0  0
    8.5627   -1.6495    0.0000 C   0  0  0  0  0  0  0  0  0  0  0  0
    8.5627   -2.4893    0.0000 N   0  0  0  0  0  0  0  0  0  0  0  0
    9.2675   -2.8942    0.0000 C   0  0  0  0  0  0  0  0  0  0  0  0
    9.9873   -2.4893    0.0000 C   0  0  0  0  0  0  0  0  0  0  0  0
   10.7072   -2.8942    0.0000 C   0  0  0  0  0  0  0  0  0  0  0  0
   10.7072   -3.7190    0.0000 C   0  0  0  0  0  0  0  0  0  0  0  0
   11.4269   -4.1239    0.0000 O   0  0  0  0  0  0  0  0  0  0  0  0
   12.1317   -3.7190    0.0000 C   0  0  0  0  0  0  0  0  0  0  0  0
   12.8516   -4.1239    0.0000 C   0  0  0  0  0  0  0  0  0  0  0  0
   13.5564   -3.7190    0.0000 C   0  0  0  0  0  0  0  0  0  0  0  0
   14.2762   -4.1239    0.0000 C   0  0  0  0  0  0  0  0  0  0  0  0
   14.2762   -4.9487    0.0000 C   0  0  0  0  0  0  0  0  0  0  0  0
   13.5564   -5.3686    0.0000 C   0  0  0  0  0  0  0  0  0  0  0  0
   12.8516   -4.9487    0.0000 C   0  0  0  0  0  0  0  0  0  0  0  0
   14.9960   -3.7190    0.0000 F   0  0  0  0  0  0  0  0  0  0  0  0
    9.9873   -4.1239    0.0000 C   0  0  0  0  0  0  0  0  0  0  0  0
    9.2675   -3.7190    0.0000 C   0  0  0  0  0  0  0  0  0  0  0  0
    9.9873   -4.9487    0.0000 Cl  0  0  0  0  0  0  0  0  0  0  0  0
    9.2675   -1.2447    0.0000 N   0  0  0  0  0  0  0  0  0  0  0  0
    9.2675   -0.4199    0.0000 C   0  0  0  0  0  0  0  0  0  0  0  0
    8.5627    0.0000    0.0000 N   0  0  0  0  0  0  0  0  0  0  0  0
    7.8429   -0.4199    0.0000 C   0  0  0  0  0  0  0  0  0  0  0  0
    7.1381    0.0000    0.0000 C   0  0  0  0  0  0  0  0  0  0  0  0
    6.4183   -0.4199    0.0000 C   0  0  0  0  0  0  0  0  0  0  0  0
  1  2  1  0
  2  3  2  0
  2  4  2  0
  2  5  1  0
  5  6  1  0
  6  7  1  0
  7  8  1  0
  8  9  1  0
  9 10  2  0
  9 13  1  0
 10 11  1  0
 11 12  2  0
 12 13  1  0
 12 14  1  0
 14 15  2  0
 14 40  1  0
 15 16  1  0
 16 17  2  0
 16 38  1  0
 17 18  1  0
 17 35  1  0
 18 19  1  0
 19 20  2  0
 19 33  1  0
 20 21  1  0
 21 22  2  0
 22 23  1  0
 22 32  1  0
 23 24  1  0
 24 25  1  0
 25 26  2  0
 25 30  1  0
 26 27  1  0
 27 28  2  0
 27 31  1  0
 28 29  1  0
 29 30  2  0
 32 33  2  0
 32 34  1  0
 35 36  2  0
 36 37  1  0
 37 38  2  0
 38 39  1  0
 39 40  2  0
M  END
>  <Formula>  (265) 
C29H26ClFN4O4S

>  <FW>  (265) 
581.0575

>  <DSSTox_CID>  (265) 
26675

>  <SR-ARE>  (265) 
1

>  <SR-HSE>  (265) 
1

$$$$
NCGC00016526-07
     RDKit          2D

 26 29  0  0  0  0  0  0  0  0999 V2000
    7.0874   -0.7125    0.0000 C   0  0  0  0  0  0  0  0  0  0  0  0
    6.2624   -0.7125    0.0000 O   0  0  0  0  0  0  0  0  0  0  0  0
    5.8499   -1.4250    0.0000 C   0  0  0  0  0  0  0  0  0  0  0  0
    5.0249   -1.4250    0.0000 C   0  0  0  0  0  0  0  0  0  0  0  0
    4.6124   -0.7125    0.0000 C   0  0  0  0  0  0  0  0  0  0  0  0
    3.7874   -0.7125    0.0000 N   0  0  0  0  0  0  0  0  0  0  0  0
    3.3675    0.0000    0.0000 C   0  0  0  0  0  0  0  0  0  0  0  0
    2.5425    0.0000    0.0000 C   0  0  0  0  0  0  0  0  0  0  0  0
    2.1300   -0.7125    0.0000 C   0  0  0  0  0  0  0  0  0  0  0  0
    2.5425   -1.4250    0.0000 C   0  0  0  0  0  0  0  0  0  0  0  0
    2.1300   -2.1450    0.0000 C   0  0  0  0  0  0  0  0  0  0  0  0
    1.3050   -2.1450    0.0000 C   0  0  0  0  0  0  0  0  0  0  0  0
    0.7575   -2.7525    0.0000 O   0  0  0  0  0  0  0  0  0  0  0  0
    0.0000   -2.4224    0.0000 C   0  0  0  0  0  0  0  0  0  0  0  0
    0.0900   -1.5975    0.0000 O   0  0  0  0  0  0  0  0  0  0  0  0
    0.8925   -1.4250    0.0000 C   0  0  0  0  0  0  0  0  0  0  0  0
    1.3050   -0.7125    0.0000 C   0  0  0  0  0  0  0  0  0  0  0  0
    3.3675   -1.4250    0.0000 C   0  0  0  0  0  0  0  0  0  0  0  0
    3.7874   -2.1450    0.0000 C   0  0  0  0  0  0  0  0  0  0  0  0
    4.6124   -2.1450    0.0000 C   0  0  0  0  0  0  0  0  0  0  0  0
    5.0249   -2.8574    0.0000 C   0  0  0  0  0  0  0  0  0  0  0  0
    5.8499   -2.8574    0.0000 C   0  0  0  0  0  0  0  0  0  0  0  0
    6.2624   -2.1450    0.0000 C   0  0  0  0  0  0  0  0  0  0  0  0
    7.0874   -2.1450    0.0000 O   0  0  0  0  0  0  0  0  0  0  0  0
    7.4998   -2.8574    0.0000 C   0  0  0  0  0  0  0  0  0  0  0  0
    3.7124   -3.6824    0.0000 Cl  0  0  0  0  0  0  0  0  0  0  0  0
  1  2  1  0
  2  3  1  0
  3  4  2  0
  3 23  1  0
  4  5  1  0
  4 20  1  0
  5  6  2  0
  6  7  1  0
  6 18  1  0
  7  8  1  0
  8  9  1  0
  9 10  2  0
  9 17  1  0
 10 11  1  0
 10 18  1  0
 11 12  2  0
 12 13  1  0
 12 16  1  0
 13 14  1  0
 14 15  1  0
 15 16  1  0
 16 17  2  0
 18 19  2  0
 19 20  1  0
 20 21  2  0
 21 22  1  0
 22 23  2  0
 23 24  1  0
 24 25  1  0
M  CHG  2   6   1  26  -1
M  END
>  <Formula>  (266) 
C20H18ClNO4

>  <FW>  (266) 
371.8142 (336.3607+35.4535)

>  <DSSTox_CID>  (266) 
4602

>  <SR-ARE>  (266) 
1

>  <SR-HSE>  (266) 
0

$$$$
NCGC00166288-02
     RDKit          2D

 26 28  0  0  0  0  0  0  0  0999 V2000
    3.8551   -1.1881    0.0000 I   0  0  0  0  0  0  0  0  0  0  0  0
    5.1887   -2.6833    0.0000 C   0  0  0  0  0  0  0  0  0  0  0  0
    5.0028   -1.8750    0.0000 C   0  0  0  0  0  0  0  0  0  0  0  0
    5.6251   -1.3174    0.0000 N   0  0  0  0  0  0  0  0  0  0  0  0
    5.5362   -0.5091    0.0000 C   0  0  0  0  0  0  0  0  0  0  0  0
    6.2959   -0.1697    0.0000 S   0  0  0  0  0  0  0  0  0  0  0  0
    6.8455   -0.7759    0.0000 C   0  0  0  0  0  0  0  0  0  0  0  0
    7.6780   -0.7759    0.0000 C   0  0  0  0  0  0  0  0  0  0  0  0
    8.0821   -1.4871    0.0000 C   0  0  0  0  0  0  0  0  0  0  0  0
    7.6780   -2.2064    0.0000 C   0  0  0  0  0  0  0  0  0  0  0  0
    6.8455   -2.2064    0.0000 C   0  0  0  0  0  0  0  0  0  0  0  0
    6.4333   -1.4871    0.0000 C   0  0  0  0  0  0  0  0  0  0  0  0
    4.8088   -0.0889    0.0000 C   0  0  0  0  0  0  0  0  0  0  0  0
    4.0976   -0.4930    0.0000 C   0  0  0  0  0  0  0  0  0  0  0  0
    3.3864   -0.0889    0.0000 C   0  0  0  0  0  0  0  0  0  0  0  0
    2.6348   -0.4284    0.0000 C   0  0  0  0  0  0  0  0  0  0  0  0
    2.4650   -1.2285    0.0000 N   0  0  0  0  0  0  0  0  0  0  0  0
    3.0146   -1.8508    0.0000 C   0  0  0  0  0  0  0  0  0  0  0  0
    2.7640   -2.6348    0.0000 C   0  0  0  0  0  0  0  0  0  0  0  0
    1.6406   -1.3174    0.0000 C   0  0  0  0  0  0  0  0  0  0  0  0
    1.1638   -1.9882    0.0000 C   0  0  0  0  0  0  0  0  0  0  0  0
    0.3395   -1.8993    0.0000 C   0  0  0  0  0  0  0  0  0  0  0  0
    0.0000   -1.1396    0.0000 C   0  0  0  0  0  0  0  0  0  0  0  0
    0.4849   -0.4768    0.0000 C   0  0  0  0  0  0  0  0  0  0  0  0
    1.3093   -0.5657    0.0000 C   0  0  0  0  0  0  0  0  0  0  0  0
    1.9154    0.0000    0.0000 S   0  0  0  0  0  0  0  0  0  0  0  0
  2  3  1  0
  3  4  1  0
  4  5  1  0
  4 12  1  0
  5  6  1  0
  5 13  2  3
  6  7  1  0
  7  8  2  0
  7 12  1  0
  8  9  1  0
  9 10  2  0
 10 11  1  0
 11 12  2  0
 13 14  1  0
 14 15  2  3
 15 16  1  0
 16 17  2  0
 16 26  1  0
 17 18  1  0
 17 20  1  0
 18 19  1  0
 20 21  2  0
 20 25  1  0
 21 22  1  0
 22 23  2  0
 23 24  1  0
 24 25  2  0
 25 26  1  0
M  CHG  2   1  -1  17   1
M  END
>  <Formula>  (267) 
C21H21IN2S2

>  <FW>  (267) 
492.4393 (126.9050+365.5343)

>  <DSSTox_CID>  (267) 
26591

>  <SR-ARE>  (267) 
1

>  <SR-HSE>  (267) 
0

$$$$
NCGC00162150-04
     RDKit          2D

 36 38  0  0  0  0  0  0  0  0999 V2000
    0.7163   -3.5361    0.0000 O   0  0  0  0  0  0  0  0  0  0  0  0
    1.4326   -3.9454    0.0000 C   0  0  0  0  0  0  0  0  0  0  0  0
    2.1262   -3.5361    0.0000 C   0  0  0  0  0  0  0  0  0  0  0  0
    2.8425   -3.9454    0.0000 O   0  0  0  0  0  0  0  0  0  0  0  0
    3.5588   -3.5361    0.0000 C   0  0  0  0  0  0  0  0  0  0  0  0
    3.5588   -2.7174    0.0000 O   0  0  0  0  0  0  0  0  0  0  0  0
    0.0000   -3.9454    0.0000 C   0  0  0  0  0  0  0  0  0  0  0  0
    4.2524   -3.9454    0.0000 C   0  0  0  0  0  0  0  0  0  0  0  0
    4.2524   -4.7527    0.0000 C   0  0  0  0  0  0  0  0  0  0  0  0
    4.9687   -5.1734    0.0000 N   0  0  0  0  0  0  0  0  0  0  0  0
    5.6850   -4.7527    0.0000 C   0  0  0  0  0  0  0  0  0  0  0  0
    5.6850   -3.9454    0.0000 C   0  0  0  0  0  0  0  0  0  0  0  0
    4.9687   -3.5361    0.0000 C   0  0  0  0  0  0  0  0  0  0  0  0
    3.5588   -5.1734    0.0000 C   0  0  0  0  0  0  0  0  0  0  0  0
    6.3900   -5.1734    0.0000 C   0  0  0  0  0  0  0  0  0  0  0  0
    6.3900   -3.5361    0.0000 C   0  0  0  0  0  0  0  0  0  0  0  0
    7.8226   -3.5361    0.0000 C   0  0  0  0  0  0  0  0  0  0  0  0
    8.5275   -3.9454    0.0000 C   0  0  0  0  0  0  0  0  0  0  0  0
    9.2438   -3.5361    0.0000 C   0  0  0  0  0  0  0  0  0  0  0  0
    9.9602   -3.9454    0.0000 C   0  0  0  0  0  0  0  0  0  0  0  0
    4.9687   -2.6492    0.0000 C   0  0  0  0  0  0  0  0  0  0  0  0
    5.7305   -2.2172    0.0000 C   0  0  0  0  0  0  0  0  0  0  0  0
    5.7305   -1.3303    0.0000 C   0  0  0  0  0  0  0  0  0  0  0  0
    4.9687   -0.8755    0.0000 C   0  0  0  0  0  0  0  0  0  0  0  0
    4.1955   -1.3303    0.0000 C   0  0  0  0  0  0  0  0  0  0  0  0
    4.1955   -2.2172    0.0000 C   0  0  0  0  0  0  0  0  0  0  0  0
    6.5037   -0.8755    0.0000 N   0  0  0  0  0  0  0  0  0  0  0  0
    7.2655   -1.3303    0.0000 O   0  0  0  0  0  0  0  0  0  0  0  0
    6.5037    0.0000    0.0000 O   0  0  0  0  0  0  0  0  0  0  0  0
   10.6537   -3.5361    0.0000 C   0  0  0  0  0  0  0  0  0  0  0  0
   11.3700   -3.9454    0.0000 C   0  0  0  0  0  0  0  0  0  0  0  0
   11.3700   -4.7527    0.0000 C   0  0  0  0  0  0  0  0  0  0  0  0
   10.6537   -5.1734    0.0000 C   0  0  0  0  0  0  0  0  0  0  0  0
    9.9602   -4.7527    0.0000 C   0  0  0  0  0  0  0  0  0  0  0  0
    7.0949   -3.9454    0.0000 O   0  0  0  0  0  0  0  0  0  0  0  0
    6.3900   -2.7061    0.0000 O   0  0  0  0  0  0  0  0  0  0  0  0
  1  2  1  0
  1  7  1  0
  2  3  1  0
  3  4  1  0
  4  5  1  0
  5  6  2  0
  5  8  1  0
  8 13  1  0
  8  9  2  0
  9 10  1  0
  9 14  1  0
 10 11  1  0
 11 12  2  0
 11 15  1  0
 12 13  1  0
 12 16  1  0
 13 21  1  0
 16 35  1  0
 16 36  2  0
 17 35  1  0
 17 18  1  0
 18 19  2  0
 19 20  1  0
 20 30  2  0
 20 34  1  0
 21 22  2  0
 21 26  1  0
 22 23  1  0
 23 24  2  0
 23 27  1  0
 24 25  1  0
 25 26  2  0
 27 28  1  0
 27 29  2  0
 30 31  1  0
 31 32  2  0
 32 33  1  0
 33 34  2  0
M  CHG  2  27   1  28  -1
M  END
>  <Formula>  (268) 
C27H28N2O7

>  <FW>  (268) 
492.5204

>  <DSSTox_CID>  (268) 
26309

>  <SR-ARE>  (268) 
1

>  <SR-HSE>  (268) 
0

$$$$
NCGC00263538-01
     RDKit          2D

 35 38  0  0  1  0  0  0  0  0999 V2000
    3.1350   -4.5336    0.0000 C   0  0  0  0  0  0  0  0  0  0  0  0
    3.1350   -3.7008    0.0000 C   0  0  0  0  0  0  0  0  0  0  0  0
    3.8500   -3.2922    0.0000 N   0  0  0  0  0  0  0  0  0  0  0  0
    3.8500   -4.9343    0.0000 C   0  0  0  0  0  0  0  0  0  0  0  0
    4.5650   -4.5336    0.0000 C   0  0  0  0  0  0  0  0  0  0  0  0
    4.5650   -3.7008    0.0000 C   0  0  0  0  0  0  0  0  0  0  0  0
    5.2721   -3.2922    0.0000 N   0  0  0  0  0  0  0  0  0  0  0  0
    5.9950   -3.7008    0.0000 C   0  0  0  0  0  0  0  0  0  0  0  0
    5.9950   -4.5336    0.0000 C   0  0  0  0  0  0  0  0  0  0  0  0
    5.2721   -4.9343    0.0000 C   0  0  0  0  0  0  0  0  0  0  0  0
    5.2721   -2.4672    0.0000 C   0  0  0  0  0  0  0  0  0  0  0  0
    4.5650   -2.0586    0.0000 C   0  0  0  0  0  0  0  0  0  0  0  0
    4.5650   -1.2257    0.0000 C   0  0  0  0  0  0  0  0  0  0  0  0
    5.2721   -0.8250    0.0000 C   0  0  0  0  0  0  0  0  0  0  0  0
    5.9950   -1.2257    0.0000 C   0  0  0  0  0  0  0  0  0  0  0  0
    5.9950   -2.0586    0.0000 C   0  0  0  0  0  0  0  0  0  0  0  0
    6.7022   -2.4672    0.0000 F   0  0  0  0  0  0  0  0  0  0  0  0
    5.2721    0.0000    0.0000 F   0  0  0  0  0  0  0  0  0  0  0  0
    5.2721   -5.7593    0.0000 O   0  0  0  0  0  0  0  0  0  0  0  0
    6.7022   -4.9343    0.0000 C   0  0  0  0  0  0  0  0  0  0  0  0
    7.4250   -4.5336    0.0000 O   0  0  0  0  0  0  0  0  0  0  0  0
    6.7022   -5.7593    0.0000 O   0  0  0  0  0  0  0  0  0  0  0  0
    2.4357   -4.9343    0.0000 F   0  0  0  0  0  0  0  0  0  0  0  0
    2.4357   -3.2922    0.0000 N   0  0  0  0  0  0  0  0  0  0  0  0
    1.6736   -3.6221    0.0000 C   0  0  0  0  0  0  0  0  0  0  0  0
    2.3336   -2.4750    0.0000 C   0  0  0  0  0  0  0  0  0  0  0  0
    1.5322   -2.2943    0.0000 C   0  0  0  0  0  0  0  0  0  0  0  0
    1.1314   -3.0171    0.0000 C   0  0  0  0  0  0  0  0  0  0  0  0
    0.7229   -2.2943    0.0000 C   0  0  0  0  0  0  0  0  0  0  0  0
    0.0000   -1.8936    0.0000 N   0  0  0  0  0  0  0  0  0  0  0  0
    3.1979   -6.9143    0.0000 S   0  0  0  0  0  0  0  0  0  0  0  0
    3.1979   -7.8571    0.0000 O   0  0  0  0  0  0  0  0  0  0  0  0
    4.0150   -6.9143    0.0000 O   0  0  0  0  0  0  0  0  0  0  0  0
    3.1979   -6.0972    0.0000 O   0  0  0  0  0  0  0  0  0  0  0  0
    2.3336   -6.9143    0.0000 C   0  0  0  0  0  0  0  0  0  0  0  0
  1  4  2  0
  1 23  1  0
  1  2  1  0
  2 24  1  0
  2  3  2  0
  3  6  1  0
  4  5  1  0
  5 10  1  0
  5  6  2  0
  6  7  1  0
  7  8  1  0
  7 11  1  0
  8  9  2  0
  9 20  1  0
  9 10  1  0
 10 19  2  0
 11 16  1  0
 11 12  2  0
 12 13  1  0
 13 14  2  0
 14 18  1  0
 14 15  1  0
 15 16  2  0
 16 17  1  0
 20 21  1  0
 20 22  2  0
 24 25  1  0
 24 26  1  0
 28 25  1  6
 27 26  1  6
 27 28  1  0
 27 29  1  0
 28 29  1  0
 29 30  1  1
 31 32  2  0
 31 33  1  0
 31 34  2  0
 31 35  1  0
M  END
>  <Formula>  (269) 
C21H19F3N4O6S

>  <FW>  (269) 
512.4590 (416.3533+96.1057)

>  <DSSTox_CID>  (269) 
25701

>  <SR-ARE>  (269) 
1

>  <SR-HSE>  (269) 
0

$$$$
NCGC00159337-04
     RDKit          2D

 21 23  0  0  1  0  0  0  0  0999 V2000
    0.7161   -0.4181    0.0000 C   0  0  0  0  0  0  0  0  0  0  0  0
    0.7161   -1.2542    0.0000 C   0  0  0  0  0  0  0  0  0  0  0  0
    1.4321   -1.6483    0.0000 C   0  0  0  0  0  0  0  0  0  0  0  0
    1.4321    0.0000    0.0000 C   0  0  0  0  0  0  0  0  0  0  0  0
    2.1433   -0.4181    0.0000 C   0  0  0  0  0  0  0  0  0  0  0  0
    2.1433   -1.2542    0.0000 C   0  0  0  0  0  0  0  0  0  0  0  0
    2.8593   -1.6483    0.0000 C   0  0  0  0  0  0  0  0  0  0  0  0
    3.5753   -1.2542    0.0000 O   0  0  0  0  0  0  0  0  0  0  0  0
    3.5753   -0.4181    0.0000 C   0  0  0  0  0  0  0  0  0  0  0  0
    2.8593    0.0000    0.0000 N   0  0  0  0  0  0  0  0  0  0  0  0
    4.2914    0.0000    0.0000 O   0  0  0  0  0  0  0  0  0  0  0  0
    0.0000   -1.6483    0.0000 Cl  0  0  0  0  0  0  0  0  0  0  0  0
    3.2678   -2.3739    0.0000 C   0  0  0  0  0  0  0  0  0  0  0  0
    3.6859   -3.0900    0.0000 C   0  0  0  0  0  0  0  0  0  0  0  0
    4.0992   -3.8060    0.0000 C   0  0  0  0  0  0  0  0  0  0  0  0
    4.8056   -4.2097    0.0000 C   0  0  0  0  0  0  0  0  0  0  0  0
    4.0992   -4.6278    0.0000 C   0  0  0  0  0  0  0  0  0  0  0  0
    2.4412   -2.3739    0.0000 C   0  0  0  0  0  0  0  0  0  0  0  0
    3.1572   -2.7824    0.0000 F   0  0  0  0  0  0  0  0  0  0  0  0
    2.0376   -3.0900    0.0000 F   0  0  0  0  0  0  0  0  0  0  0  0
    1.7396   -1.9559    0.0000 F   0  0  0  0  0  0  0  0  0  0  0  0
  1  2  2  0
  1  4  1  0
  2 12  1  0
  2  3  1  0
  3  6  2  0
  4  5  2  0
  5 10  1  0
  5  6  1  0
  6  7  1  0
  7 13  1  1
  7 18  1  0
  7  8  1  0
  8  9  1  0
  9 10  1  0
  9 11  2  0
 13 14  3  0
 14 15  1  0
 15 16  1  0
 15 17  1  0
 16 17  1  0
 18 19  1  0
 18 20  1  0
 18 21  1  0
M  END
>  <Formula>  (270) 
C14H9ClF3NO2

>  <FW>  (270) 
315.6750

>  <DSSTox_CID>  (270) 
26029

>  <SR-ARE>  (270) 
1

>  <SR-HSE>  (270) 
1

$$$$
NCGC00344583-01
     RDKit          2D

 64 71  0  0  1  0  0  0  0  0999 V2000
    3.6182   -1.7507    0.0000 C   0  0  0  0  0  0  0  0  0  0  0  0
    2.8829   -1.3539    0.0000 C   0  0  0  0  0  0  0  0  0  0  0  0
    2.8829   -0.5019    0.0000 C   0  0  0  0  0  0  0  0  0  0  0  0
    4.3185   -1.3539    0.0000 C   0  0  0  0  0  0  0  0  0  0  0  0
    3.5832   -0.1051    0.0000 C   0  0  0  0  0  0  0  0  0  0  0  0
    4.3185   -0.5019    0.0000 C   0  0  0  0  0  0  0  0  0  0  0  0
    4.9488   -1.8558    0.0000 C   0  0  0  0  0  0  0  0  0  0  0  0
    5.7541   -1.6691    0.0000 C   0  0  0  0  0  0  0  0  0  0  0  0
    4.9721    0.0000    0.0000 N   0  0  0  0  0  0  0  0  0  0  0  0
    5.7541   -0.1868    0.0000 C   0  0  0  0  0  0  0  0  0  0  0  0
    6.1160   -0.9220    0.0000 C   0  0  0  0  0  0  0  0  0  0  0  0
    5.2173   -0.8871    0.0000 C   0  0  0  0  0  0  0  0  0  0  0  0
    2.1359   -1.7507    0.0000 N   0  0  0  0  0  0  0  0  0  0  0  0
    1.4356   -0.5019    0.0000 C   0  0  0  0  0  0  0  0  0  0  0  0
    1.4356   -1.3539    0.0000 C   0  0  0  0  0  0  0  0  0  0  0  0
    0.7003   -0.1051    0.0000 C   0  0  0  0  0  0  0  0  0  0  0  0
    0.7003   -1.7507    0.0000 C   0  0  0  0  0  0  0  0  0  0  0  0
    0.0000   -0.5019    0.0000 C   0  0  0  0  0  0  0  0  0  0  0  0
    0.0000   -1.3539    0.0000 C   0  0  0  0  0  0  0  0  0  0  0  0
    6.8396   -0.5369    0.0000 O   0  0  0  0  0  0  0  0  0  0  0  0
    6.8046   -1.3539    0.0000 C   0  0  0  0  0  0  0  0  0  0  0  0
    7.5516   -1.0037    0.0000 C   0  0  0  0  0  0  0  0  0  0  0  0
    7.8200   -3.0930    0.0000 C   0  0  0  0  0  0  0  0  0  0  0  0
    8.5203   -4.3419    0.0000 C   0  0  0  0  0  0  0  0  0  0  0  0
    7.8200   -3.9100    0.0000 C   0  0  0  0  0  0  0  0  0  0  0  0
    9.2206   -3.0930    0.0000 C   0  0  0  0  0  0  0  0  0  0  0  0
    7.0847   -4.2952    0.0000 N   0  0  0  0  0  0  0  0  0  0  0  0
    8.5203   -2.6728    0.0000 C   0  0  0  0  0  0  0  0  0  0  0  0
    6.3844   -3.9100    0.0000 C   0  0  0  0  0  0  0  0  0  0  0  0
    9.2206   -3.9100    0.0000 C   0  0  0  0  0  0  0  0  0  0  0  0
    6.3844   -3.0930    0.0000 C   0  0  0  0  0  0  0  0  0  0  0  0
    4.9488   -3.0930    0.0000 C   0  0  0  0  0  0  0  0  0  0  0  0
    5.6374   -4.2952    0.0000 C   0  0  0  0  0  0  0  0  0  0  0  0
    5.6374   -2.6728    0.0000 C   0  0  0  0  0  0  0  0  0  0  0  0
    8.5203   -1.8558    0.0000 N   0  0  0  0  0  0  0  0  0  0  0  0
    3.4198   -2.4394    0.0000 C   0  0  0  0  0  0  0  0  0  0  0  0
    8.8355   -4.8788    0.0000 C   0  0  0  0  0  0  0  0  0  0  0  0
    4.9488   -3.9100    0.0000 C   0  0  0  0  0  0  0  0  0  0  0  0
    7.0847   -2.6728    0.0000 C   0  0  0  0  0  0  0  0  0  0  0  0
   10.1543   -4.7387    0.0000 O   0  0  0  0  0  0  0  0  0  0  0  0
    9.9560   -2.6728    0.0000 C   0  0  0  0  0  0  0  0  0  0  0  0
   11.1698   -4.7387    0.0000 C   0  0  0  0  0  0  0  0  0  0  0  0
    7.0847   -1.8558    0.0000 C   0  0  0  0  0  0  0  0  0  0  0  0
    8.2869   -5.1238    0.0000 O   0  0  0  0  0  0  0  0  0  0  0  0
    9.9560   -1.8558    0.0000 C   0  0  0  0  0  0  0  0  0  0  0  0
    9.6992   -4.8788    0.0000 O   0  0  0  0  0  0  0  0  0  0  0  0
    2.6378   -2.6728    0.0000 O   0  0  0  0  0  0  0  0  0  0  0  0
   11.6717   -3.8400    0.0000 O   0  0  0  0  0  0  0  0  0  0  0  0
    9.9560   -3.5715    0.0000 C   0  0  0  0  0  0  0  0  0  0  0  0
    7.0380   -5.1589    0.0000 C   0  0  0  0  0  0  0  0  0  0  0  0
    9.2206   -1.4356    0.0000 C   0  0  0  0  0  0  0  0  0  0  0  0
    8.8355   -5.6258    0.0000 O   0  0  0  0  0  0  0  0  0  0  0  0
    3.9684   -2.9529    0.0000 O   0  0  0  0  0  0  0  0  0  0  0  0
    4.2018   -4.2952    0.0000 O   0  0  0  0  0  0  0  0  0  0  0  0
   11.5900   -5.5090    0.0000 C   0  0  0  0  0  0  0  0  0  0  0  0
    3.5365   -3.6766    0.0000 C   0  0  0  0  0  0  0  0  0  0  0  0
    9.5708   -6.0109    0.0000 C   0  0  0  0  0  0  0  0  0  0  0  0
    4.2018   -5.1589    0.0000 C   0  0  0  0  0  0  0  0  0  0  0  0
   10.7029   -3.2097    0.0000 C   0  0  0  0  0  0  0  0  0  0  0  0
    1.5290   -4.0384    0.0000 S   0  0  0  0  0  0  0  0  0  0  0  0
    2.3577   -4.0384    0.0000 O   0  0  0  0  0  0  0  0  0  0  0  0
    0.7120   -4.0384    0.0000 O   0  0  0  0  0  0  0  0  0  0  0  0
    1.5290   -4.8671    0.0000 O   0  0  0  0  0  0  0  0  0  0  0  0
    1.5290   -3.2214    0.0000 O   0  0  0  0  0  0  0  0  0  0  0  0
  1  2  1  0
  1  4  1  0
  1 32  1  0
  1 36  1  1
  2  3  2  0
  2 13  1  0
  3  5  1  0
  3 14  1  0
  7  4  1  1
  5  6  1  0
  9  6  1  1
  7  8  1  0
  7 12  1  0
  8 11  1  0
  9 10  1  0
  9 12  1  0
 10 11  1  0
 11 20  1  1
 11 21  1  0
 13 15  1  0
 14 16  2  0
 14 15  1  0
 15 17  2  0
 16 18  1  0
 17 19  1  0
 18 19  2  0
 21 22  1  0
 23 25  1  0
 23 28  1  0
 23 39  1  1
 23 31  1  0
 24 25  1  0
 24 37  1  0
 24 44  1  1
 24 30  1  0
 25 27  1  6
 26 28  1  0
 26 30  1  0
 26 41  1  0
 26 49  1  6
 27 29  1  0
 27 50  1  0
 28 35  1  1
 29 33  1  0
 29 31  2  0
 30 40  1  1
 31 34  1  0
 32 34  2  0
 32 38  1  0
 33 38  2  0
 35 51  1  0
 35 43  1  0
 36 47  2  0
 36 53  1  0
 37 46  2  0
 37 52  1  0
 38 54  1  0
 39 43  1  0
 40 42  1  0
 41 45  2  0
 42 48  2  0
 42 55  1  0
 45 51  1  0
 49 59  1  0
 52 57  1  0
 53 56  1  0
 54 58  1  0
 60 61  2  0
 60 62  2  0
 60 63  1  0
 60 64  1  0
M  END
>  <Formula>  (271) 
C46H60N4O13S

>  <FW>  (271) 
909.0526 (810.9741+98.0785)

>  <DSSTox_CID>  (271) 
27831

>  <SR-ARE>  (271) 
1

>  <SR-HSE>  (271) 
1

$$$$
NCGC00025125-18
     RDKit          2D

 29 31  0  0  1  0  0  0  0  0999 V2000
    3.5234   -2.5766    0.0000 C   0  0  0  0  0  0  0  0  0  0  0  0
    4.3281   -2.4008    0.0000 C   0  0  0  0  0  0  0  0  0  0  0  0
    2.8877   -2.0491    0.0000 C   0  0  0  0  0  0  0  0  0  0  0  0
    2.1776   -2.4616    0.0000 C   0  0  0  0  0  0  0  0  0  0  0  0
    4.9773   -2.8877    0.0000 C   0  0  0  0  0  0  0  0  0  0  0  0
    1.4472   -2.0491    0.0000 C   0  0  0  0  0  0  0  0  0  0  0  0
    3.1785   -3.3137    0.0000 C   0  0  0  0  0  0  0  0  0  0  0  0
    2.8877   -1.2240    0.0000 C   0  0  0  0  0  0  0  0  0  0  0  0
    4.9773   -3.7127    0.0000 C   0  0  0  0  0  0  0  0  0  0  0  0
    4.6730   -1.6501    0.0000 C   0  0  0  0  0  0  0  0  0  0  0  0
    1.4472   -1.2376    0.0000 C   0  0  0  0  0  0  0  0  0  0  0  0
    3.5234   -4.0508    0.0000 C   0  0  0  0  0  0  0  0  0  0  0  0
    4.3484   -4.2267    0.0000 C   0  0  0  0  0  0  0  0  0  0  0  0
    5.5251   -1.6501    0.0000 N   0  0  0  0  0  0  0  0  0  0  0  0
    2.1776   -0.8251    0.0000 C   0  0  0  0  0  0  0  0  0  0  0  0
    5.9241   -0.9400    0.0000 C   0  0  0  0  0  0  0  0  0  0  0  0
    3.5234   -0.7236    0.0000 C   0  0  0  0  0  0  0  0  0  0  0  0
    5.7280   -4.1117    0.0000 O   0  0  0  0  0  0  0  0  0  0  0  0
    4.3281   -0.9129    0.0000 C   0  0  0  0  0  0  0  0  0  0  0  0
    5.5116   -0.2097    0.0000 O   0  0  0  0  0  0  0  0  0  0  0  0
    2.1776   -3.2867    0.0000 O   0  0  0  0  0  0  0  0  0  0  0  0
    0.7101   -2.4481    0.0000 O   0  0  0  0  0  0  0  0  0  0  0  0
    0.7101   -0.8386    0.0000 O   0  0  0  0  0  0  0  0  0  0  0  0
    4.5648   -5.0247    0.0000 O   0  0  0  0  0  0  0  0  0  0  0  0
    6.7627   -0.9400    0.0000 C   0  0  0  0  0  0  0  0  0  0  0  0
    1.4405   -3.6992    0.0000 C   0  0  0  0  0  0  0  0  0  0  0  0
    0.0000   -2.0017    0.0000 C   0  0  0  0  0  0  0  0  0  0  0  0
    0.7101    0.0000    0.0000 C   0  0  0  0  0  0  0  0  0  0  0  0
    5.3155   -5.0247    0.0000 C   0  0  0  0  0  0  0  0  0  0  0  0
  1  2  1  0
  1  3  1  0
  1  7  2  0
  2  5  2  0
  2 10  1  0
  3  4  2  0
  3  8  1  0
  4  6  1  0
  4 21  1  0
  5  9  1  0
  6 22  1  0
  6 11  2  0
  7 12  1  0
  8 15  2  0
  8 17  1  0
  9 18  2  0
  9 13  1  0
 10 14  1  6
 10 19  1  0
 11 15  1  0
 11 23  1  0
 12 13  2  0
 13 24  1  0
 14 16  1  0
 16 20  2  0
 16 25  1  0
 17 19  1  0
 21 26  1  0
 22 27  1  0
 23 28  1  0
 24 29  1  0
M  END
>  <Formula>  (272) 
C22H25NO6

>  <FW>  (272) 
399.4370

>  <DSSTox_CID>  (272) 
4845

>  <SR-ARE>  (272) 
1

>  <SR-HSE>  (272) 
0

$$$$
NCGC00261969-01
     RDKit          2D

 46 49  0  0  1  0  0  0  0  0999 V2000
    2.4348   -2.8623    0.0000 C   0  0  0  0  0  0  0  0  0  0  0  0
    1.6034    0.0000    0.0000 C   0  0  0  0  0  0  0  0  0  0  0  0
    1.1996   -0.7126    0.0000 C   0  0  0  0  0  0  0  0  0  0  0  0
    0.3682   -0.7126    0.0000 N   0  0  0  0  0  0  0  0  0  0  0  0
    1.6034   -1.4371    0.0000 C   0  0  0  0  0  0  0  0  0  0  0  0
    1.1996   -2.1497    0.0000 O   0  0  0  0  0  0  0  0  0  0  0  0
    2.4348   -1.4371    0.0000 N   0  0  0  0  0  0  0  0  0  0  0  0
    2.8505   -2.1497    0.0000 C   0  0  0  0  0  0  0  0  0  0  0  0
    3.6700   -2.1378    0.0000 C   0  0  0  0  0  0  0  0  0  0  0  0
    4.0975   -1.4371    0.0000 O   0  0  0  0  0  0  0  0  0  0  0  0
    4.0975   -2.8623    0.0000 N   0  0  0  0  0  0  0  0  0  0  0  0
    4.9171   -2.8623    0.0000 C   0  0  0  0  0  0  0  0  0  0  0  0
    5.6416   -2.4467    0.0000 C   0  0  0  0  0  0  0  0  0  0  0  0
    6.4136   -2.1972    0.0000 C   0  0  0  0  0  0  0  0  0  0  0  0
    6.9124   -2.8742    0.0000 N   0  0  0  0  0  0  0  0  0  0  0  0
    6.4136   -3.5275    0.0000 C   0  0  0  0  0  0  0  0  0  0  0  0
    5.6416   -3.2780    0.0000 C   0  0  0  0  0  0  0  0  0  0  0  0
    7.7319   -2.8742    0.0000 C   0  0  0  0  0  0  0  0  0  0  0  0
    8.1476   -2.1497    0.0000 C   0  0  0  0  0  0  0  0  0  0  0  0
    7.7319   -1.4371    0.0000 F   0  0  0  0  0  0  0  0  0  0  0  0
    8.9671   -2.1497    0.0000 C   0  0  0  0  0  0  0  0  0  0  0  0
    9.3828   -2.8742    0.0000 C   0  0  0  0  0  0  0  0  0  0  0  0
   10.2142   -2.8742    0.0000 C   0  0  0  0  0  0  0  0  0  0  0  0
   10.6299   -2.1497    0.0000 O   0  0  0  0  0  0  0  0  0  0  0  0
   10.6299   -3.5869    0.0000 C   0  0  0  0  0  0  0  0  0  0  0  0
   10.2142   -4.2995    0.0000 C   0  0  0  0  0  0  0  0  0  0  0  0
    9.3828   -4.2995    0.0000 N   0  0  0  0  0  0  0  0  0  0  0  0
    8.9671   -5.0121    0.0000 C   0  0  0  0  0  0  0  0  0  0  0  0
    8.1595   -5.0002    0.0000 C   0  0  0  0  0  0  0  0  0  0  0  0
    7.7319   -5.7247    0.0000 C   0  0  0  0  0  0  0  0  0  0  0  0
    8.1476   -6.4373    0.0000 C   0  0  0  0  0  0  0  0  0  0  0  0
    7.7319   -7.1618    0.0000 F   0  0  0  0  0  0  0  0  0  0  0  0
    8.9671   -6.4373    0.0000 C   0  0  0  0  0  0  0  0  0  0  0  0
    9.3947   -5.7366    0.0000 C   0  0  0  0  0  0  0  0  0  0  0  0
   10.2261   -5.7366    0.0000 F   0  0  0  0  0  0  0  0  0  0  0  0
    8.9671   -3.5750    0.0000 C   0  0  0  0  0  0  0  0  0  0  0  0
    8.1476   -3.5869    0.0000 N   0  0  0  0  0  0  0  0  0  0  0  0
   11.4613   -3.5750    0.0000 C   0  0  0  0  0  0  0  0  0  0  0  0
   11.8770   -2.8623    0.0000 O   0  0  0  0  0  0  0  0  0  0  0  0
   11.8770   -4.2995    0.0000 O   0  0  0  0  0  0  0  0  0  0  0  0
    4.7152   -2.0666    0.0000 C   0  0  0  0  0  0  0  0  0  0  0  0
    0.9383   -4.2044    0.0000 O   0  0  0  0  0  0  0  0  0  0  0  0
    0.0000   -5.1546    0.0000 O   0  0  0  0  0  0  0  0  0  0  0  0
    0.9383   -6.0929    0.0000 O   0  0  0  0  0  0  0  0  0  0  0  0
    1.8884   -5.1546    0.0000 C   0  0  0  0  0  0  0  0  0  0  0  0
    0.9383   -5.1546    0.0000 S   0  0  0  0  0  0  0  0  0  0  0  0
  8  1  1  6
  3  2  1  1
  3  4  1  0
  3  5  1  0
  5  6  2  0
  5  7  1  0
  8  7  1  0
  8  9  1  0
  9 10  2  0
  9 11  1  0
 12 11  1  0
 12 13  1  0
 12 17  1  0
 12 41  1  1
 13 14  1  1
 13 17  1  0
 14 15  1  0
 15 16  1  0
 15 18  1  0
 17 16  1  1
 18 19  2  0
 18 37  1  0
 19 20  1  0
 19 21  1  0
 21 22  2  0
 22 23  1  0
 22 36  1  0
 23 24  2  0
 23 25  1  0
 25 26  2  0
 25 38  1  0
 26 27  1  0
 27 28  1  0
 27 36  1  0
 28 29  2  0
 28 34  1  0
 29 30  1  0
 30 31  2  0
 31 32  1  0
 31 33  1  0
 33 34  2  0
 34 35  1  0
 36 37  2  0
 38 39  1  0
 38 40  2  0
 42 46  2  0
 43 46  1  0
 44 46  2  0
 45 46  1  0
M  END
>  <Formula>  (273) 
C28H31F3N6O8S

>  <FW>  (273) 
668.6413 (572.5357+96.1057)

>  <DSSTox_CID>  (273) 
31444

>  <SR-ARE>  (273) 
1

>  <SR-HSE>  (273) 
0

$$$$
NCGC00167536-03
     RDKit          2D

 40 43  0  0  0  0  0  0  0  0999 V2000
    0.0000   -3.1215    0.0000 N   0  0  0  0  0  0  0  0  0  0  0  0
    0.8255   -3.0361    0.0000 C   0  0  0  0  0  0  0  0  0  0  0  0
    1.2334   -2.3245    0.0000 C   0  0  0  0  0  0  0  0  0  0  0  0
    2.0399   -2.4953    0.0000 C   0  0  0  0  0  0  0  0  0  0  0  0
    2.1347   -3.3207    0.0000 N   0  0  0  0  0  0  0  0  0  0  0  0
    1.3852   -3.6528    0.0000 C   0  0  0  0  0  0  0  0  0  0  0  0
    2.8463   -3.7382    0.0000 C   0  0  0  0  0  0  0  0  0  0  0  0
    3.5674   -3.3207    0.0000 N   0  0  0  0  0  0  0  0  0  0  0  0
    4.2790   -3.7382    0.0000 C   0  0  0  0  0  0  0  0  0  0  0  0
    4.2790   -4.5541    0.0000 C   0  0  0  0  0  0  0  0  0  0  0  0
    3.5674   -4.9716    0.0000 C   0  0  0  0  0  0  0  0  0  0  0  0
    2.8463   -4.5541    0.0000 C   0  0  0  0  0  0  0  0  0  0  0  0
    2.1347   -4.9716    0.0000 F   0  0  0  0  0  0  0  0  0  0  0  0
    5.0001   -4.9716    0.0000 C   0  0  0  0  0  0  0  0  0  0  0  0
    5.0001   -5.7970    0.0000 O   0  0  0  0  0  0  0  0  0  0  0  0
    5.7116   -4.5541    0.0000 C   0  0  0  0  0  0  0  0  0  0  0  0
    5.7116   -3.7382    0.0000 C   0  0  0  0  0  0  0  0  0  0  0  0
    5.0001   -3.3207    0.0000 N   0  0  0  0  0  0  0  0  0  0  0  0
    5.0001   -2.4953    0.0000 C   0  0  0  0  0  0  0  0  0  0  0  0
    4.2790   -2.0778    0.0000 C   0  0  0  0  0  0  0  0  0  0  0  0
    4.2790   -1.2429    0.0000 C   0  0  0  0  0  0  0  0  0  0  0  0
    5.0001   -0.8349    0.0000 C   0  0  0  0  0  0  0  0  0  0  0  0
    5.0001    0.0000    0.0000 F   0  0  0  0  0  0  0  0  0  0  0  0
    5.7116   -1.2429    0.0000 C   0  0  0  0  0  0  0  0  0  0  0  0
    5.7116   -2.0778    0.0000 C   0  0  0  0  0  0  0  0  0  0  0  0
    6.4327   -2.4953    0.0000 F   0  0  0  0  0  0  0  0  0  0  0  0
    6.4327   -4.9716    0.0000 C   0  0  0  0  0  0  0  0  0  0  0  0
    7.1443   -4.5541    0.0000 O   0  0  0  0  0  0  0  0  0  0  0  0
    6.4327   -5.7970    0.0000 O   0  0  0  0  0  0  0  0  0  0  0  0
    8.3018   -1.5085    0.0000 C   0  0  0  0  0  0  0  0  0  0  0  0
    8.7382   -2.2012    0.0000 C   0  0  0  0  0  0  0  0  0  0  0  0
    8.3018   -2.9128    0.0000 C   0  0  0  0  0  0  0  0  0  0  0  0
    7.5143   -2.9128    0.0000 C   0  0  0  0  0  0  0  0  0  0  0  0
    7.0779   -2.2012    0.0000 C   0  0  0  0  0  0  0  0  0  0  0  0
    7.5143   -1.5085    0.0000 C   0  0  0  0  0  0  0  0  0  0  0  0
    8.7003   -0.7969    0.0000 S   0  0  0  0  0  0  0  0  0  0  0  0
    9.4878   -1.2334    0.0000 O   0  0  0  0  0  0  0  0  0  0  0  0
    9.0893   -0.1044    0.0000 O   0  0  0  0  0  0  0  0  0  0  0  0
    8.0266   -0.3985    0.0000 O   0  0  0  0  0  0  0  0  0  0  0  0
    7.1064   -3.6053    0.0000 C   0  0  0  0  0  0  0  0  0  0  0  0
  1  2  1  0
  2  3  1  0
  2  6  1  0
  3  4  1  0
  4  5  1  0
  5  6  1  0
  5  7  1  0
  7  8  2  0
  7 12  1  0
  8  9  1  0
  9 10  2  0
  9 18  1  0
 10 11  1  0
 10 14  1  0
 11 12  2  0
 12 13  1  0
 14 15  2  0
 14 16  1  0
 16 17  2  0
 16 27  1  0
 17 18  1  0
 18 19  1  0
 19 20  2  0
 19 25  1  0
 20 21  1  0
 21 22  2  0
 22 23  1  0
 22 24  1  0
 24 25  2  0
 25 26  1  0
 27 28  1  0
 27 29  2  0
 30 31  2  0
 30 35  1  0
 30 36  1  0
 31 32  1  0
 32 33  2  0
 33 34  1  0
 33 40  1  0
 34 35  2  0
 36 37  2  0
 36 38  1  0
 36 39  2  0
M  END
>  <Formula>  (274) 
C26H23F3N4O6S

>  <FW>  (274) 
576.5442 (404.3426+172.2016)

>  <DSSTox_CID>  (274) 
27820

>  <SR-ARE>  (274) 
1

>  <SR-HSE>  (274) 
0

$$$$
NCGC00253650-01
     RDKit          2D

 24 26  0  0  1  0  0  0  0  0999 V2000
    0.0000   -1.2400    0.0000 C   0  0  0  0  0  0  0  0  0  0  0  0
    0.7200   -0.8240    0.0000 C   0  0  0  0  0  0  0  0  0  0  0  0
    0.7200    0.0000    0.0000 C   0  0  0  0  0  0  0  0  0  0  0  0
    1.4320   -1.2400    0.0000 C   0  0  0  0  0  0  0  0  0  0  0  0
    1.4320   -2.0720    0.0000 C   0  0  0  0  0  0  0  0  0  0  0  0
    2.1520   -2.4800    0.0000 N   0  0  0  0  0  0  0  0  0  0  0  0
    2.1520   -3.3120    0.0000 C   0  0  0  0  0  0  0  0  0  0  0  0
    1.4320   -3.7280    0.0000 N   0  0  0  0  0  0  0  0  0  0  0  0
    1.4320   -4.5520    0.0000 C   0  0  0  0  0  0  0  0  0  0  0  0
    2.1520   -4.9680    0.0000 N   0  0  0  0  0  0  0  0  0  0  0  0
    2.8640   -4.5520    0.0000 C   0  0  0  0  0  0  0  0  0  0  0  0
    2.8640   -3.7280    0.0000 C   0  0  0  0  0  0  0  0  0  0  0  0
    3.6561   -3.4720    0.0000 N   0  0  0  0  0  0  0  0  0  0  0  0
    4.1441   -4.1361    0.0000 C   0  0  0  0  0  0  0  0  0  0  0  0
    3.6561   -4.8081    0.0000 N   0  0  0  0  0  0  0  0  0  0  0  0
    3.9121   -5.5921    0.0000 C   0  0  0  0  0  0  0  0  0  0  0  0
    3.4241   -6.2641    0.0000 O   0  0  0  0  0  0  0  0  0  0  0  0
    3.9121   -6.9361    0.0000 C   0  0  0  0  0  0  0  0  0  0  0  0
    4.0800   -7.7441    0.0000 C   0  0  0  0  0  0  0  0  0  0  0  0
    4.8721   -8.0001    0.0000 O   0  0  0  0  0  0  0  0  0  0  0  0
    4.6961   -6.6801    0.0000 C   0  0  0  0  0  0  0  0  0  0  0  0
    5.5201   -6.7681    0.0000 O   0  0  0  0  0  0  0  0  0  0  0  0
    4.6961   -5.8481    0.0000 C   0  0  0  0  0  0  0  0  0  0  0  0
    5.0321   -5.0961    0.0000 O   0  0  0  0  0  0  0  0  0  0  0  0
  1  2  1  0
  2  3  1  0
  2  4  2  0
  4  5  1  0
  5  6  1  0
  6  7  1  0
  7  8  2  0
  7 12  1  0
  8  9  1  0
  9 10  2  0
 10 11  1  0
 11 12  2  0
 11 15  1  0
 12 13  1  0
 13 14  2  0
 14 15  1  0
 16 15  1  1
 16 17  1  0
 16 23  1  0
 17 18  1  0
 18 19  1  1
 18 21  1  0
 19 20  1  0
 21 22  1  6
 21 23  1  0
 23 24  1  6
M  END
>  <Formula>  (275) 
C15H21N5O4

>  <FW>  (275) 
335.3583

>  <DSSTox_CID>  (275) 
31617

>  <SR-ARE>  (275) 
1

>  <SR-HSE>  (275) 
0

$$$$
NCGC00164547-06
     RDKit          2D

 41 45  0  0  0  0  0  0  0  0999 V2000
    1.4122   -3.3587    0.0000 C   0  0  0  0  0  0  0  0  0  0  0  0
    1.4122   -4.1729    0.0000 C   0  0  0  0  0  0  0  0  0  0  0  0
    0.7125   -2.9389    0.0000 C   0  0  0  0  0  0  0  0  0  0  0  0
    0.7125   -4.5800    0.0000 C   0  0  0  0  0  0  0  0  0  0  0  0
    0.0000   -3.3587    0.0000 C   0  0  0  0  0  0  0  0  0  0  0  0
    0.0000   -4.1729    0.0000 C   0  0  0  0  0  0  0  0  0  0  0  0
    2.1247   -2.9389    0.0000 C   0  0  0  0  0  0  0  0  0  0  0  0
    2.1247   -4.5800    0.0000 S   0  0  0  0  0  0  0  0  0  0  0  0
    2.8371   -4.1857    0.0000 N   0  0  0  0  0  0  0  0  0  0  0  0
    4.2620   -3.3587    0.0000 C   0  0  0  0  0  0  0  0  0  0  0  0
    3.5496   -4.5800    0.0000 C   0  0  0  0  0  0  0  0  0  0  0  0
    4.2620   -4.1857    0.0000 C   0  0  0  0  0  0  0  0  0  0  0  0
    5.6869   -3.3587    0.0000 C   0  0  0  0  0  0  0  0  0  0  0  0
    5.6869   -4.1857    0.0000 C   0  0  0  0  0  0  0  0  0  0  0  0
    4.9745   -2.9389    0.0000 C   0  0  0  0  0  0  0  0  0  0  0  0
    4.9745   -4.5800    0.0000 C   0  0  0  0  0  0  0  0  0  0  0  0
    6.3994   -2.1119    0.0000 C   0  0  0  0  0  0  0  0  0  0  0  0
    6.3994   -2.9389    0.0000 C   0  0  0  0  0  0  0  0  0  0  0  0
    4.9745   -2.1119    0.0000 O   0  0  0  0  0  0  0  0  0  0  0  0
    4.2620   -1.7048    0.0000 C   0  0  0  0  0  0  0  0  0  0  0  0
    1.7175   -5.2925    0.0000 O   0  0  0  0  0  0  0  0  0  0  0  0
    2.5317   -5.2925    0.0000 O   0  0  0  0  0  0  0  0  0  0  0  0
    3.5496   -5.4070    0.0000 O   0  0  0  0  0  0  0  0  0  0  0  0
    8.6003   -1.0432    0.0000 C   0  0  0  0  0  0  0  0  0  0  0  0
    8.6003   -1.8702    0.0000 C   0  0  0  0  0  0  0  0  0  0  0  0
    7.9006   -0.6361    0.0000 C   0  0  0  0  0  0  0  0  0  0  0  0
    7.9006   -2.2773    0.0000 C   0  0  0  0  0  0  0  0  0  0  0  0
    7.1754   -1.0432    0.0000 C   0  0  0  0  0  0  0  0  0  0  0  0
    7.1754   -1.8702    0.0000 C   0  0  0  0  0  0  0  0  0  0  0  0
    6.3994   -0.7761    0.0000 N   0  0  0  0  0  0  0  0  0  0  0  0
    5.9159   -1.4631    0.0000 C   0  0  0  0  0  0  0  0  0  0  0  0
    6.1449    0.0000    0.0000 C   0  0  0  0  0  0  0  0  0  0  0  0
    9.3128   -2.2773    0.0000 N   0  0  0  0  0  0  0  0  0  0  0  0
   10.0252   -1.8702    0.0000 C   0  0  0  0  0  0  0  0  0  0  0  0
   10.7377   -2.2773    0.0000 O   0  0  0  0  0  0  0  0  0  0  0  0
   11.4502   -1.8702    0.0000 C   0  0  0  0  0  0  0  0  0  0  0  0
   11.4502   -1.0432    0.0000 C   0  0  0  0  0  0  0  0  0  0  0  0
   10.0252   -1.0432    0.0000 O   0  0  0  0  0  0  0  0  0  0  0  0
   12.2390   -2.1119    0.0000 C   0  0  0  0  0  0  0  0  0  0  0  0
   12.7224   -1.4631    0.0000 C   0  0  0  0  0  0  0  0  0  0  0  0
   12.2390   -0.7761    0.0000 C   0  0  0  0  0  0  0  0  0  0  0  0
  1  3  2  0
  1  7  1  0
  1  2  1  0
  2  4  2  0
  2  8  1  0
  3  5  1  0
  4  6  1  0
  5  6  2  0
  8  9  1  0
  8 21  2  0
  8 22  2  0
  9 11  1  0
 10 15  2  0
 10 12  1  0
 11 12  1  0
 11 23  2  0
 12 16  2  0
 13 14  2  0
 13 15  1  0
 13 18  1  0
 14 16  1  0
 15 19  1  0
 17 18  1  0
 17 29  1  0
 17 31  2  0
 19 20  1  0
 24 25  2  0
 24 26  1  0
 25 27  1  0
 25 33  1  0
 26 28  2  0
 27 29  2  0
 28 29  1  0
 28 30  1  0
 30 31  1  0
 30 32  1  0
 33 34  1  0
 34 35  1  0
 34 38  2  0
 35 36  1  0
 36 39  1  0
 36 37  1  0
 37 41  1  0
 39 40  1  0
 40 41  1  0
M  END
>  <Formula>  (276) 
C31H33N3O6S

>  <FW>  (276) 
575.6752

>  <DSSTox_CID>  (276) 
3746

>  <SR-ARE>  (276) 
1

>  <SR-HSE>  (276) 
0

$$$$
NCGC00095150-08
     RDKit          2D

 39 44  0  0  0  0  0  0  0  0999 V2000
   10.5770   -3.4692    0.0000 C   0  0  0  0  0  0  0  0  0  0  0  0
   10.1644   -4.1885    0.0000 C   0  0  0  0  0  0  0  0  0  0  0  0
    9.3394   -4.1885    0.0000 C   0  0  0  0  0  0  0  0  0  0  0  0
    8.9270   -3.4692    0.0000 C   0  0  0  0  0  0  0  0  0  0  0  0
    9.3394   -2.7606    0.0000 C   0  0  0  0  0  0  0  0  0  0  0  0
   10.1644   -2.7606    0.0000 C   0  0  0  0  0  0  0  0  0  0  0  0
    8.7894   -2.1471    0.0000 N   0  0  0  0  0  0  0  0  0  0  0  0
    8.0279   -2.4750    0.0000 C   0  0  0  0  0  0  0  0  0  0  0  0
    7.3192   -2.0625    0.0000 C   0  0  0  0  0  0  0  0  0  0  0  0
    6.6000   -2.4750    0.0000 C   0  0  0  0  0  0  0  0  0  0  0  0
    5.8914   -2.0625    0.0000 C   0  0  0  0  0  0  0  0  0  0  0  0
    5.8914   -1.2375    0.0000 C   0  0  0  0  0  0  0  0  0  0  0  0
    6.6000   -0.8250    0.0000 C   0  0  0  0  0  0  0  0  0  0  0  0
    6.6000    0.0000    0.0000 C   0  0  0  0  0  0  0  0  0  0  0  0
    7.3192   -1.2375    0.0000 C   0  0  0  0  0  0  0  0  0  0  0  0
    5.0981   -0.9837    0.0000 N   0  0  0  0  0  0  0  0  0  0  0  0
    4.6116   -1.6500    0.0000 C   0  0  0  0  0  0  0  0  0  0  0  0
    3.7866   -1.6500    0.0000 C   0  0  0  0  0  0  0  0  0  0  0  0
    3.3740   -0.9414    0.0000 C   0  0  0  0  0  0  0  0  0  0  0  0
    2.5490   -0.9414    0.0000 C   0  0  0  0  0  0  0  0  0  0  0  0
    5.0981   -2.3163    0.0000 N   0  0  0  0  0  0  0  0  0  0  0  0
    4.8442   -3.1096    0.0000 C   0  0  0  0  0  0  0  0  0  0  0  0
    4.0404   -3.2788    0.0000 C   0  0  0  0  0  0  0  0  0  0  0  0
    3.7866   -4.0615    0.0000 C   0  0  0  0  0  0  0  0  0  0  0  0
    2.9721   -4.2308    0.0000 C   0  0  0  0  0  0  0  0  0  0  0  0
    2.4221   -3.6173    0.0000 C   0  0  0  0  0  0  0  0  0  0  0  0
    1.6183   -3.7971    0.0000 C   0  0  0  0  0  0  0  0  0  0  0  0
    1.3644   -4.5798    0.0000 C   0  0  0  0  0  0  0  0  0  0  0  0
    0.5500   -4.7490    0.0000 C   0  0  0  0  0  0  0  0  0  0  0  0
    0.0000   -4.1356    0.0000 C   0  0  0  0  0  0  0  0  0  0  0  0
    0.2539   -3.3529    0.0000 C   0  0  0  0  0  0  0  0  0  0  0  0
    1.0577   -3.1837    0.0000 C   0  0  0  0  0  0  0  0  0  0  0  0
    1.3221   -2.3904    0.0000 C   0  0  0  0  0  0  0  0  0  0  0  0
    0.7298   -1.8087    0.0000 O   0  0  0  0  0  0  0  0  0  0  0  0
    2.1259   -2.2211    0.0000 O   0  0  0  0  0  0  0  0  0  0  0  0
    2.6760   -2.8346    0.0000 C   0  0  0  0  0  0  0  0  0  0  0  0
    3.4904   -2.6654    0.0000 C   0  0  0  0  0  0  0  0  0  0  0  0
    8.1231   -3.3000    0.0000 N   0  0  0  0  0  0  0  0  0  0  0  0
    7.4990   -3.8500    0.0000 C   0  0  0  0  0  0  0  0  0  0  0  0
  1  2  2  0
  1  6  1  0
  2  3  1  0
  3  4  2  0
  4  5  1  0
  4 38  1  0
  5  6  2  0
  5  7  1  0
  7  8  2  0
  8  9  1  0
  8 38  1  0
  9 10  2  0
  9 15  1  0
 10 11  1  0
 11 12  2  0
 11 21  1  0
 12 13  1  0
 12 16  1  0
 13 14  1  0
 13 15  2  0
 16 17  2  0
 17 18  1  0
 17 21  1  0
 18 19  1  0
 19 20  1  0
 21 22  1  0
 22 23  1  0
 23 24  2  0
 23 37  1  0
 24 25  1  0
 25 26  2  0
 26 27  1  0
 26 36  1  0
 27 28  2  0
 27 32  1  0
 28 29  1  0
 29 30  2  0
 30 31  1  0
 31 32  2  0
 32 33  1  0
 33 34  1  0
 33 35  2  0
 36 37  2  0
 38 39  1  0
M  END
>  <Formula>  (277) 
C33H30N4O2

>  <FW>  (277) 
514.6169

>  <DSSTox_CID>  (277) 
3636

>  <SR-ARE>  (277) 
1

>  <SR-HSE>  (277) 
0

$$$$
NCGC00096122-05
     RDKit          2D

 19 21  0  0  1  0  0  0  0  0999 V2000
    0.0000   -3.8699    0.0000 O   0  0  0  0  0  0  0  0  0  0  0  0
    0.6050   -3.3049    0.0000 C   0  0  0  0  0  0  0  0  0  0  0  0
    1.3900   -3.5500    0.0000 C   0  0  0  0  0  0  0  0  0  0  0  0
    2.0550   -3.0550    0.0000 O   0  0  0  0  0  0  0  0  0  0  0  0
    2.7300   -3.5299    0.0000 C   0  0  0  0  0  0  0  0  0  0  0  0
    2.4799   -4.3249    0.0000 C   0  0  0  0  0  0  0  0  0  0  0  0
    2.9650   -4.9900    0.0000 O   0  0  0  0  0  0  0  0  0  0  0  0
    1.6550   -4.3350    0.0000 C   0  0  0  0  0  0  0  0  0  0  0  0
    1.1700   -4.9999    0.0000 O   0  0  0  0  0  0  0  0  0  0  0  0
    2.7000   -2.3099    0.0000 N   0  0  0  0  0  0  0  0  0  0  0  0
    3.1850   -1.6450    0.0000 C   0  0  0  0  0  0  0  0  0  0  0  0
    2.7000   -0.9800    0.0000 N   0  0  0  0  0  0  0  0  0  0  0  0
    1.9150   -1.2400    0.0000 C   0  0  0  0  0  0  0  0  0  0  0  0
    1.9150   -2.0650    0.0000 C   0  0  0  0  0  0  0  0  0  0  0  0
    1.2000   -2.4700    0.0000 N   0  0  0  0  0  0  0  0  0  0  0  0
    0.4850   -2.0650    0.0000 C   0  0  0  0  0  0  0  0  0  0  0  0
    0.4950   -1.2400    0.0000 N   0  0  0  0  0  0  0  0  0  0  0  0
    1.2100   -0.8250    0.0000 C   0  0  0  0  0  0  0  0  0  0  0  0
    1.2000    0.0000    0.0000 S   0  0  0  0  0  0  0  0  0  0  0  0
  1  2  1  0
  3  2  1  1
  3  4  1  0
  3  8  1  0
  4  5  1  0
  5  6  1  0
  5 10  1  1
  6  7  1  6
  6  8  1  0
  8  9  1  6
 10 11  1  0
 10 14  1  0
 11 12  2  0
 12 13  1  0
 13 14  2  0
 13 18  1  0
 14 15  1  0
 15 16  2  0
 16 17  1  0
 17 18  2  0
 18 19  1  0
M  END
>  <Formula>  (278) 
C10H12N4O4S

>  <FW>  (278) 
284.2917

>  <DSSTox_CID>  (278) 
26019

>  <SR-ARE>  (278) 
1

>  <SR-HSE>  (278) 
0

$$$$
NCGC00159391-03
     RDKit          2D

 38 39  0  0  0  0  0  0  0  0999 V2000
    3.2174   -6.5130    0.0000 Na  0  0  0  0  0 15  0  0  0  0  0  0
    2.3902   -6.5130    0.0000 Na  0  0  0  0  0 15  0  0  0  0  0  0
    4.7479   -5.5490    0.0000 O   0  0  0  0  0  0  0  0  0  0  0  0
    4.1032   -5.0410    0.0000 S   0  0  0  0  0  0  0  0  0  0  0  0
    4.6112   -4.3898    0.0000 O   0  0  0  0  0  0  0  0  0  0  0  0
    3.5952   -5.6858    0.0000 O   0  0  0  0  0  0  0  0  0  0  0  0
    3.4519   -4.5330    0.0000 C   0  0  0  0  0  0  0  0  0  0  0  0
    3.5691   -3.7124    0.0000 C   0  0  0  0  0  0  0  0  0  0  0  0
    2.9178   -3.2109    0.0000 C   0  0  0  0  0  0  0  0  0  0  0  0
    2.1492   -3.5170    0.0000 C   0  0  0  0  0  0  0  0  0  0  0  0
    2.0386   -4.3311    0.0000 C   0  0  0  0  0  0  0  0  0  0  0  0
    2.6899   -4.8391    0.0000 C   0  0  0  0  0  0  0  0  0  0  0  0
    2.5726   -5.6598    0.0000 O   0  0  0  0  0  0  0  0  0  0  0  0
    3.0676   -2.1492    0.0000 C   0  0  0  0  0  0  0  0  0  0  0  0
    3.4779   -1.4329    0.0000 O   0  0  0  0  0  0  0  0  0  0  0  0
    2.9243   -0.8206    0.0000 C   0  0  0  0  0  0  0  0  0  0  0  0
    3.1002   -0.0131    0.0000 O   0  0  0  0  0  0  0  0  0  0  0  0
    2.1754   -1.1528    0.0000 C   0  0  0  0  0  0  0  0  0  0  0  0
    1.4198   -0.8206    0.0000 C   0  0  0  0  0  0  0  0  0  0  0  0
    1.3352    0.0000    0.0000 Br  0  0  0  0  0  0  0  0  0  0  0  0
    0.7555   -1.3026    0.0000 C   0  0  0  0  0  0  0  0  0  0  0  0
    0.0000   -0.9704    0.0000 Br  0  0  0  0  0  0  0  0  0  0  0  0
    0.8402   -2.1232    0.0000 C   0  0  0  0  0  0  0  0  0  0  0  0
    0.1693   -2.6117    0.0000 Br  0  0  0  0  0  0  0  0  0  0  0  0
    1.5891   -2.4619    0.0000 C   0  0  0  0  0  0  0  0  0  0  0  0
    1.6803   -3.2825    0.0000 Br  0  0  0  0  0  0  0  0  0  0  0  0
    2.2600   -1.9734    0.0000 C   0  0  0  0  0  0  0  0  0  0  0  0
    3.8426   -2.4163    0.0000 C   0  0  0  0  0  0  0  0  0  0  0  0
    4.0055   -3.2239    0.0000 C   0  0  0  0  0  0  0  0  0  0  0  0
    4.7805   -3.4910    0.0000 C   0  0  0  0  0  0  0  0  0  0  0  0
    5.4058   -2.9503    0.0000 C   0  0  0  0  0  0  0  0  0  0  0  0
    6.1808   -3.2174    0.0000 O   0  0  0  0  0  0  0  0  0  0  0  0
    5.2494   -2.1428    0.0000 C   0  0  0  0  0  0  0  0  0  0  0  0
    4.4679   -1.8757    0.0000 C   0  0  0  0  0  0  0  0  0  0  0  0
    5.8682   -1.6022    0.0000 S   0  0  0  0  0  0  0  0  0  0  0  0
    6.4934   -1.0616    0.0000 O   0  0  0  0  0  0  0  0  0  0  0  0
    6.4088   -2.2209    0.0000 O   0  0  0  0  0  0  0  0  0  0  0  0
    5.3276   -0.9769    0.0000 O   0  0  0  0  0  0  0  0  0  0  0  0
  3  4  1  0
  4  5  2  0
  4  6  2  0
  4  7  1  0
  7  8  2  0
  7 12  1  0
  8  9  1  0
  9 10  2  0
  9 14  1  0
 10 11  1  0
 11 12  2  0
 12 13  1  0
 14 15  1  0
 14 27  1  0
 14 28  1  0
 15 16  1  0
 16 17  2  0
 16 18  1  0
 18 19  1  0
 18 27  2  0
 19 20  1  0
 19 21  2  0
 21 22  1  0
 21 23  1  0
 23 24  1  0
 23 25  2  0
 25 26  1  0
 25 27  1  0
 28 29  2  0
 28 34  1  0
 29 30  1  0
 30 31  2  0
 31 32  1  0
 31 33  1  0
 33 34  2  0
 33 35  1  0
 35 36  1  0
 35 37  2  0
 35 38  2  0
M  CHG  4   1   1   2   1   3  -1  36  -1
M  END
>  <Formula>  (279) 
C20H8Br4Na2O10S2

>  <FW>  (279) 
837.9971 (22.9892+22.9892+792.0186)

>  <DSSTox_CID>  (279) 
3621

>  <SR-ARE>  (279) 
1

>  <SR-HSE>  (279) 
0

$$$$
NCGC00273482-01
     RDKit          2D

 31 32  0  0  1  0  0  0  0  0999 V2000
    0.0000   -2.8439    0.0000 O   0  0  0  0  0  0  0  0  0  0  0  0
    7.3428   -5.9831    0.0000 Na  0  0  0  0  0 15  0  0  0  0  0  0
    5.6956   -3.7297    0.0000 N   0  0  0  0  0  0  0  0  0  0  0  0
    5.6956   -2.8594    0.0000 C   0  0  0  0  0  0  0  0  0  0  0  0
    4.7864   -3.7297    0.0000 C   0  0  0  0  0  0  0  0  0  0  0  0
    4.7864   -2.8594    0.0000 C   0  0  0  0  0  0  0  0  0  0  0  0
    6.5658   -3.9861    0.0000 C   0  0  0  0  0  0  0  0  0  0  0  0
    6.5891   -2.5176    0.0000 S   0  0  0  0  0  0  0  0  0  0  0  0
    3.4111   -2.1291    0.0000 C   0  0  0  0  0  0  0  0  0  0  0  0
    7.0941   -3.2946    0.0000 C   0  0  0  0  0  0  0  0  0  0  0  0
    3.8229   -2.8594    0.0000 N   0  0  0  0  0  0  0  0  0  0  0  0
    2.5875   -2.1291    0.0000 C   0  0  0  0  0  0  0  0  0  0  0  0
    6.8455   -4.8719    0.0000 C   0  0  0  0  0  0  0  0  0  0  0  0
    2.1757   -2.8594    0.0000 C   0  0  0  0  0  0  0  0  0  0  0  0
    4.2503   -4.2969    0.0000 O   0  0  0  0  0  0  0  0  0  0  0  0
    2.1757   -1.4297    0.0000 C   0  0  0  0  0  0  0  0  0  0  0  0
    3.8229   -1.4297    0.0000 O   0  0  0  0  0  0  0  0  0  0  0  0
    6.2550   -5.5946    0.0000 O   0  0  0  0  0  0  0  0  0  0  0  0
    7.7702   -5.0817    0.0000 O   0  0  0  0  0  0  0  0  0  0  0  0
    1.3598   -2.8594    0.0000 C   0  0  0  0  0  0  0  0  0  0  0  0
    1.3598   -1.4297    0.0000 C   0  0  0  0  0  0  0  0  0  0  0  0
    0.9402   -2.1291    0.0000 C   0  0  0  0  0  0  0  0  0  0  0  0
    7.6381   -2.5176    0.0000 C   0  0  0  0  0  0  0  0  0  0  0  0
    7.6847   -3.9705    0.0000 C   0  0  0  0  0  0  0  0  0  0  0  0
    2.5875   -0.7149    0.0000 O   0  0  0  0  0  0  0  0  0  0  0  0
    2.5875   -3.5587    0.0000 C   0  0  0  0  0  0  0  0  0  0  0  0
    0.9402   -3.5587    0.0000 C   0  0  0  0  0  0  0  0  0  0  0  0
    2.1757    0.0000    0.0000 C   0  0  0  0  0  0  0  0  0  0  0  0
    2.1757   -4.2736    0.0000 C   0  0  0  0  0  0  0  0  0  0  0  0
    1.3598    0.0000    0.0000 C   0  0  0  0  0  0  0  0  0  0  0  0
    1.3598   -4.2736    0.0000 C   0  0  0  0  0  0  0  0  0  0  0  0
  3  4  1  0
  3  5  1  0
  3  7  1  0
  4  8  1  1
  4  6  1  0
  5  6  1  0
  5 15  2  0
  6 11  1  1
  7 10  1  0
  7 13  1  6
  8 10  1  0
  9 11  1  0
  9 12  1  0
  9 17  2  0
 10 23  1  0
 10 24  1  0
 12 14  1  0
 12 16  2  0
 13 18  1  0
 13 19  2  0
 14 20  2  0
 14 26  1  0
 16 21  1  0
 16 25  1  0
 20 27  1  0
 20 22  1  0
 21 22  2  0
 25 28  1  0
 26 29  2  0
 27 31  2  0
 28 30  1  0
 29 31  1  0
M  CHG  2   2   1  18  -1
M  END
>  <Formula>  (280) 
C21H23N2NaO6S

>  <FW>  (280) 
454.4719 (18.0153+22.9892+413.4674)

>  <DSSTox_CID>  (280) 
25570

>  <SR-ARE>  (280) 
1

>  <SR-HSE>  (280) 
0

$$$$
NCGC00262959-01
     RDKit          2D

 35 40  0  0  0  0  0  0  0  0999 V2000
    0.0000   -2.1447    0.0000 S   0  0  0  0  0  0  0  0  0  0  0  0
    0.4168   -1.4327    0.0000 C   0  0  0  0  0  0  0  0  0  0  0  0
    1.2417   -1.4327    0.0000 C   0  0  0  0  0  0  0  0  0  0  0  0
    1.6498   -2.1447    0.0000 C   0  0  0  0  0  0  0  0  0  0  0  0
    1.2417   -2.8654    0.0000 C   0  0  0  0  0  0  0  0  0  0  0  0
    0.4168   -2.8654    0.0000 C   0  0  0  0  0  0  0  0  0  0  0  0
    0.0000   -0.7120    0.0000 C   0  0  0  0  0  0  0  0  0  0  0  0
    0.4168    0.0000    0.0000 C   0  0  0  0  0  0  0  0  0  0  0  0
    1.2417    0.0000    0.0000 C   0  0  0  0  0  0  0  0  0  0  0  0
    1.6498   -0.7120    0.0000 C   0  0  0  0  0  0  0  0  0  0  0  0
    0.0000   -3.5687    0.0000 O   0  0  0  0  0  0  0  0  0  0  0  0
    1.2417   -4.2895    0.0000 C   0  0  0  0  0  0  0  0  0  0  0  0
    1.6498   -5.0014    0.0000 C   0  0  0  0  0  0  0  0  0  0  0  0
    0.4168   -4.2895    0.0000 C   0  0  0  0  0  0  0  0  0  0  0  0
    1.2417   -5.7222    0.0000 C   0  0  0  0  0  0  0  0  0  0  0  0
    2.4833   -5.0014    0.0000 C   0  0  0  0  0  0  0  0  0  0  0  0
    1.6498   -3.5687    0.0000 C   0  0  0  0  0  0  0  0  0  0  0  0
    2.4833   -3.5687    0.0000 C   0  0  0  0  0  0  0  0  0  0  0  0
    2.9002   -4.2895    0.0000 C   0  0  0  0  0  0  0  0  0  0  0  0
    0.4168   -5.7222    0.0000 C   0  0  0  0  0  0  0  0  0  0  0  0
    0.0000   -5.0014    0.0000 C   0  0  0  0  0  0  0  0  0  0  0  0
    5.3749   -4.2895    0.0000 C   0  0  0  0  0  0  0  0  0  0  0  0
    4.9581   -5.0014    0.0000 C   0  0  0  0  0  0  0  0  0  0  0  0
    4.9581   -3.5687    0.0000 C   0  0  0  0  0  0  0  0  0  0  0  0
    4.1332   -5.0014    0.0000 C   0  0  0  0  0  0  0  0  0  0  0  0
    4.1332   -3.5687    0.0000 C   0  0  0  0  0  0  0  0  0  0  0  0
    3.7251   -4.2895    0.0000 C   0  0  0  0  0  0  0  0  0  0  0  0
    6.1998   -4.2895    0.0000 C   0  0  0  0  0  0  0  0  0  0  0  0
    6.6079   -3.5687    0.0000 C   0  0  0  0  0  0  0  0  0  0  0  0
    6.6079   -5.0014    0.0000 C   0  0  0  0  0  0  0  0  0  0  0  0
    7.4414   -3.5687    0.0000 C   0  0  0  0  0  0  0  0  0  0  0  0
    7.4414   -5.0014    0.0000 C   0  0  0  0  0  0  0  0  0  0  0  0
    7.8582   -4.2895    0.0000 C   0  0  0  0  0  0  0  0  0  0  0  0
    8.6831   -4.2895    0.0000 Br  0  0  0  0  0  0  0  0  0  0  0  0
    2.4833   -2.1447    0.0000 O   0  0  0  0  0  0  0  0  0  0  0  0
  1  2  1  0
  1  6  1  0
  2  3  2  0
  2  7  1  0
  3  4  1  0
  3 10  1  0
  4  5  2  0
  4 35  1  0
  5  6  1  0
  5 17  1  0
  6 11  2  0
  7  8  2  0
  8  9  1  0
  9 10  2  0
 12 13  1  0
 12 14  2  0
 12 17  1  0
 13 15  2  0
 13 16  1  0
 14 21  1  0
 15 20  1  0
 16 19  1  0
 17 18  1  0
 18 19  1  0
 19 27  1  0
 20 21  2  0
 22 28  1  0
 22 23  2  0
 22 24  1  0
 23 25  1  0
 24 26  2  0
 25 27  2  0
 26 27  1  0
 28 29  2  0
 28 30  1  0
 29 31  1  0
 30 32  2  0
 31 33  2  0
 32 33  1  0
 33 34  1  0
M  END
>  <Formula>  (281) 
C31H23BrO2S

>  <FW>  (281) 
539.4821

>  <DSSTox_CID>  (281) 
12374

>  <SR-ARE>  (281) 
1

>  <SR-HSE>  (281) 
1

$$$$
NCGC00160518-03
     RDKit          2D

 28 31  0  0  1  0  0  0  0  0999 V2000
    1.4274    0.0000    0.0000 C   0  0  0  0  0  0  0  0  0  0  0  0
    1.4274   -0.8208    0.0000 C   0  0  0  0  0  0  0  0  0  0  0  0
    2.1411   -1.2347    0.0000 C   0  0  0  0  0  0  0  0  0  0  0  0
    2.1411   -2.0625    0.0000 N   0  0  0  0  0  0  0  0  0  0  0  0
    1.4274   -2.4694    0.0000 C   0  0  0  0  0  0  0  0  0  0  0  0
    0.7137   -2.0625    0.0000 C   0  0  0  0  0  0  0  0  0  0  0  0
    0.0000   -2.4694    0.0000 C   0  0  0  0  0  0  0  0  0  0  0  0
    0.7137   -1.2347    0.0000 N   0  0  0  0  0  0  0  0  0  0  0  0
    2.8547   -2.4694    0.0000 C   0  0  0  0  0  0  0  0  0  0  0  0
    3.5684   -2.0625    0.0000 C   0  0  0  0  0  0  0  0  0  0  0  0
    3.5684   -1.2347    0.0000 F   0  0  0  0  0  0  0  0  0  0  0  0
    4.2821   -2.4694    0.0000 C   0  0  0  0  0  0  0  0  0  0  0  0
    4.2821   -3.2973    0.0000 C   0  0  0  0  0  0  0  0  0  0  0  0
    3.5684   -3.7111    0.0000 C   0  0  0  0  0  0  0  0  0  0  0  0
    2.8547   -3.2973    0.0000 C   0  0  0  0  0  0  0  0  0  0  0  0
    2.1411   -3.7111    0.0000 F   0  0  0  0  0  0  0  0  0  0  0  0
    3.5684   -4.5319    0.0000 F   0  0  0  0  0  0  0  0  0  0  0  0
    4.9958   -3.7111    0.0000 C   0  0  0  0  0  0  0  0  0  0  0  0
    4.9958   -4.5319    0.0000 O   0  0  0  0  0  0  0  0  0  0  0  0
    5.7095   -3.2973    0.0000 C   0  0  0  0  0  0  0  0  0  0  0  0
    5.7095   -2.4694    0.0000 C   0  0  0  0  0  0  0  0  0  0  0  0
    4.9958   -2.0625    0.0000 N   0  0  0  0  0  0  0  0  0  0  0  0
    4.9958   -1.2347    0.0000 C   0  0  0  0  0  0  0  0  0  0  0  0
    4.5819   -0.5210    0.0000 C   0  0  0  0  0  0  0  0  0  0  0  0
    5.4098   -0.5210    0.0000 C   0  0  0  0  0  0  0  0  0  0  0  0
    6.4231   -3.7111    0.0000 C   0  0  0  0  0  0  0  0  0  0  0  0
    7.1369   -3.2973    0.0000 O   0  0  0  0  0  0  0  0  0  0  0  0
    6.4231   -4.5319    0.0000 O   0  0  0  0  0  0  0  0  0  0  0  0
  2  1  1  1
  2  3  1  0
  2  8  1  0
  3  4  1  0
  4  5  1  0
  4  9  1  0
  5  6  1  0
  6  7  1  1
  6  8  1  0
  9 10  2  0
  9 15  1  0
 10 11  1  0
 10 12  1  0
 12 13  2  0
 12 22  1  0
 13 14  1  0
 13 18  1  0
 14 15  2  0
 14 17  1  0
 15 16  1  0
 18 19  2  0
 18 20  1  0
 20 21  2  0
 20 26  1  0
 21 22  1  0
 22 23  1  0
 23 24  1  0
 23 25  1  0
 24 25  1  0
 26 27  1  0
 26 28  2  0
M  END
>  <Formula>  (282) 
C19H20F3N3O3

>  <FW>  (282) 
395.3756

>  <DSSTox_CID>  (282) 
26201

>  <SR-ARE>  (282) 
1

>  <SR-HSE>  (282) 
0

$$$$
NCGC00017358-15
     RDKit          2D

 29 33  0  0  1  0  0  0  0  0999 V2000
    4.9523   -2.7041    0.0000 C   0  0  0  0  0  0  0  0  0  0  0  0
    4.2449   -3.9304    0.0000 C   0  0  0  0  0  0  0  0  0  0  0  0
    3.5374   -3.5059    0.0000 C   0  0  0  0  0  0  0  0  0  0  0  0
    4.9523   -3.5059    0.0000 C   0  0  0  0  0  0  0  0  0  0  0  0
    5.6598   -2.2797    0.0000 C   0  0  0  0  0  0  0  0  0  0  0  0
    2.8378   -3.9304    0.0000 C   0  0  0  0  0  0  0  0  0  0  0  0
    4.2449   -2.2797    0.0000 O   0  0  0  0  0  0  0  0  0  0  0  0
    3.5374   -2.7041    0.0000 C   0  0  0  0  0  0  0  0  0  0  0  0
    2.1303   -3.5059    0.0000 C   0  0  0  0  0  0  0  0  0  0  0  0
    6.9648   -2.1382    0.0000 O   0  0  0  0  0  0  0  0  0  0  0  0
    6.3674   -2.7041    0.0000 C   0  0  0  0  0  0  0  0  0  0  0  0
    5.8407   -1.4857    0.0000 C   0  0  0  0  0  0  0  0  0  0  0  0
    6.6503   -1.4071    0.0000 C   0  0  0  0  0  0  0  0  0  0  0  0
    2.8378   -4.7323    0.0000 C   0  0  0  0  0  0  0  0  0  0  0  0
    2.1303   -2.7041    0.0000 O   0  0  0  0  0  0  0  0  0  0  0  0
    1.4228   -3.9304    0.0000 C   0  0  0  0  0  0  0  0  0  0  0  0
    5.6598   -3.9304    0.0000 C   0  0  0  0  0  0  0  0  0  0  0  0
    2.1303   -5.1568    0.0000 C   0  0  0  0  0  0  0  0  0  0  0  0
    1.4228   -4.7323    0.0000 C   0  0  0  0  0  0  0  0  0  0  0  0
    7.0669   -0.7154    0.0000 C   0  0  0  0  0  0  0  0  0  0  0  0
    2.8378   -2.2797    0.0000 C   0  0  0  0  0  0  0  0  0  0  0  0
    4.2449   -4.7323    0.0000 O   0  0  0  0  0  0  0  0  0  0  0  0
    6.3674   -3.5059    0.0000 C   0  0  0  0  0  0  0  0  0  0  0  0
    6.6424    0.0000    0.0000 C   0  0  0  0  0  0  0  0  0  0  0  0
    2.1303   -5.9664    0.0000 O   0  0  0  0  0  0  0  0  0  0  0  0
    0.7075   -5.1646    0.0000 O   0  0  0  0  0  0  0  0  0  0  0  0
    7.8609   -0.7075    0.0000 C   0  0  0  0  0  0  0  0  0  0  0  0
    0.0000   -4.7401    0.0000 C   0  0  0  0  0  0  0  0  0  0  0  0
    1.4228   -6.3752    0.0000 C   0  0  0  0  0  0  0  0  0  0  0  0
  1  4  2  0
  1  5  1  0
  1  7  1  0
  2  4  1  0
  2 22  2  0
  3  2  1  1
  3  8  1  0
  3  6  1  0
  4 17  1  0
  5 11  2  0
  5 12  1  0
  6 14  2  0
  6  9  1  0
  7  8  1  0
  8 21  1  1
  9 15  1  0
  9 16  2  0
 10 11  1  0
 10 13  1  0
 11 23  1  0
 12 13  1  0
 13 20  1  6
 14 18  1  0
 15 21  1  0
 16 19  1  0
 17 23  2  0
 18 25  1  0
 18 19  2  0
 19 26  1  0
 20 24  2  0
 20 27  1  0
 25 29  1  0
 26 28  1  0
M  END
>  <Formula>  (283) 
C23H22O6

>  <FW>  (283) 
394.4172

>  <DSSTox_CID>  (283) 
1248

>  <SR-ARE>  (283) 
1

>  <SR-HSE>  (283) 
0

$$$$
NCGC00093976-08
     RDKit          2D

 37 40  0  0  1  0  0  0  0  0999 V2000
    7.8574   -1.4301    0.0000 C   0  0  0  0  0  0  0  0  0  0  0  0
    7.8574   -2.2551    0.0000 C   0  0  0  0  0  0  0  0  0  0  0  0
    7.1503   -1.0136    0.0000 C   0  0  0  0  0  0  0  0  0  0  0  0
    7.1503   -2.6637    0.0000 C   0  0  0  0  0  0  0  0  0  0  0  0
    6.4274   -1.4301    0.0000 C   0  0  0  0  0  0  0  0  0  0  0  0
    6.4274   -2.2551    0.0000 C   0  0  0  0  0  0  0  0  0  0  0  0
    5.7202   -1.0136    0.0000 C   0  0  0  0  0  0  0  0  0  0  0  0
    5.0052   -1.4301    0.0000 C   0  0  0  0  0  0  0  0  0  0  0  0
    5.7202   -2.6637    0.0000 C   0  0  0  0  0  0  0  0  0  0  0  0
    5.0052   -2.2551    0.0000 C   0  0  0  0  0  0  0  0  0  0  0  0
    4.2902   -1.0136    0.0000 C   0  0  0  0  0  0  0  0  0  0  0  0
    3.5673   -1.4301    0.0000 C   0  0  0  0  0  0  0  0  0  0  0  0
    4.2902   -2.6637    0.0000 C   0  0  0  0  0  0  0  0  0  0  0  0
    3.5673   -2.2551    0.0000 C   0  0  0  0  0  0  0  0  0  0  0  0
    5.7202   -0.1886    0.0000 O   0  0  0  0  0  0  0  0  0  0  0  0
    5.7202   -3.4887    0.0000 O   0  0  0  0  0  0  0  0  0  0  0  0
    4.2902   -0.1886    0.0000 O   0  0  0  0  0  0  0  0  0  0  0  0
    4.2902   -3.4887    0.0000 O   0  0  0  0  0  0  0  0  0  0  0  0
    2.8522   -1.0136    0.0000 C   0  0  0  0  0  0  0  0  0  0  0  0
    2.1372   -1.4301    0.0000 C   0  0  0  0  0  0  0  0  0  0  0  0
    2.8522   -2.6637    0.0000 C   0  0  0  0  0  0  0  0  0  0  0  0
    2.1372   -2.2551    0.0000 C   0  0  0  0  0  0  0  0  0  0  0  0
    2.8522   -3.4887    0.0000 O   0  0  0  0  0  0  0  0  0  0  0  0
    1.7286   -0.6993    0.0000 C   0  0  0  0  0  0  0  0  0  0  0  0
    0.9036   -0.6993    0.0000 O   0  0  0  0  0  0  0  0  0  0  0  0
    2.1372    0.0000    0.0000 C   0  0  0  0  0  0  0  0  0  0  0  0
    1.3122   -1.4301    0.0000 O   0  0  0  0  0  0  0  0  0  0  0  0
    2.1372   -3.9051    0.0000 C   0  0  0  0  0  0  0  0  0  0  0  0
    2.1372   -4.7302    0.0000 C   0  0  0  0  0  0  0  0  0  0  0  0
    1.4301   -3.4887    0.0000 O   0  0  0  0  0  0  0  0  0  0  0  0
    1.4301   -5.1387    0.0000 C   0  0  0  0  0  0  0  0  0  0  0  0
    0.7072   -3.9051    0.0000 C   0  0  0  0  0  0  0  0  0  0  0  0
    0.7072   -4.7302    0.0000 C   0  0  0  0  0  0  0  0  0  0  0  0
    0.0000   -3.4887    0.0000 C   0  0  0  0  0  0  0  0  0  0  0  0
    0.0000   -5.1387    0.0000 O   0  0  0  0  0  0  0  0  0  0  0  0
    1.4301   -5.9638    0.0000 N   0  0  0  0  0  0  0  0  0  0  0  0
    3.6615   -4.4395    0.0000 Cl  0  0  0  0  0  0  0  0  0  0  0  0
  1  2  2  0
  1  3  1  0
  2  4  1  0
  3  5  2  0
  4  6  2  0
  5  7  1  0
  5  6  1  0
  6  9  1  0
  7  8  1  0
  7 15  2  0
  8 11  2  0
  8 10  1  0
  9 10  1  0
  9 16  2  0
 10 13  2  0
 11 12  1  0
 11 17  1  0
 12 19  1  0
 12 14  2  0
 13 14  1  0
 13 18  1  0
 14 21  1  0
 19 20  1  0
 20 22  1  0
 20 24  1  0
 20 27  1  1
 21 22  1  0
 21 23  1  1
 28 23  1  1
 24 25  2  0
 24 26  1  0
 28 29  1  0
 28 30  1  0
 29 31  1  0
 30 32  1  0
 31 33  1  0
 31 36  1  6
 32 33  1  0
 32 34  1  6
 33 35  1  6
M  END
>  <Formula>  (284) 
C26H28ClNO9

>  <FW>  (284) 
533.9548 (497.4939+36.4609)

>  <DSSTox_CID>  (284) 
27775

>  <SR-ARE>  (284) 
1

>  <SR-HSE>  (284) 
0

$$$$
NCGC00263918-03
     RDKit          2D

 40 43  0  0  1  0  0  0  0  0999 V2000
    2.0995   -6.7060    0.0000 O   0  0  0  0  0  0  0  0  0  0  0  0
    2.3816   -5.9304    0.0000 C   0  0  0  0  0  0  0  0  0  0  0  0
    1.8567   -5.3115    0.0000 C   0  0  0  0  0  0  0  0  0  0  0  0
    1.0420   -5.4447    0.0000 O   0  0  0  0  0  0  0  0  0  0  0  0
    2.1387   -4.5281    0.0000 C   0  0  0  0  0  0  0  0  0  0  0  0
    1.3318   -4.3871    0.0000 O   0  0  0  0  0  0  0  0  0  0  0  0
    2.1387   -3.6977    0.0000 C   0  0  0  0  0  0  0  0  0  0  0  0
    2.8594   -3.2982    0.0000 C   0  0  0  0  0  0  0  0  0  0  0  0
    2.8594   -2.4677    0.0000 O   0  0  0  0  0  0  0  0  0  0  0  0
    2.1387   -2.0525    0.0000 C   0  0  0  0  0  0  0  0  0  0  0  0
    1.4258   -2.4677    0.0000 C   0  0  0  0  0  0  0  0  0  0  0  0
    0.7129   -2.0525    0.0000 C   0  0  0  0  0  0  0  0  0  0  0  0
    0.0000   -2.4677    0.0000 N   0  0  0  0  0  0  0  0  0  0  0  0
    0.7129   -1.2300    0.0000 C   0  0  0  0  0  0  0  0  0  0  0  0
    0.0000   -0.8226    0.0000 O   0  0  0  0  0  0  0  0  0  0  0  0
    1.4258   -0.8226    0.0000 C   0  0  0  0  0  0  0  0  0  0  0  0
    1.4258    0.0000    0.0000 C   0  0  0  0  0  0  0  0  0  0  0  0
    2.1387   -1.2300    0.0000 O   0  0  0  0  0  0  0  0  0  0  0  0
    3.5724   -3.6977    0.0000 C   0  0  0  0  0  0  0  0  0  0  0  0
    4.2774   -3.2982    0.0000 C   0  0  0  0  0  0  0  0  0  0  0  0
    4.2774   -2.4677    0.0000 O   0  0  0  0  0  0  0  0  0  0  0  0
    4.9903   -3.6977    0.0000 C   0  0  0  0  0  0  0  0  0  0  0  0
    5.7032   -3.2982    0.0000 C   0  0  0  0  0  0  0  0  0  0  0  0
    5.7032   -2.4677    0.0000 O   0  0  0  0  0  0  0  0  0  0  0  0
    6.4161   -3.6977    0.0000 C   0  0  0  0  0  0  0  0  0  0  0  0
    7.1291   -3.2982    0.0000 C   0  0  0  0  0  0  0  0  0  0  0  0
    7.1291   -2.4677    0.0000 O   0  0  0  0  0  0  0  0  0  0  0  0
    7.8341   -2.0525    0.0000 C   0  0  0  0  0  0  0  0  0  0  0  0
    7.8341   -3.6977    0.0000 C   0  0  0  0  0  0  0  0  0  0  0  0
    7.8341   -4.5281    0.0000 C   0  0  0  0  0  0  0  0  0  0  0  0
    7.1291   -4.9433    0.0000 C   0  0  0  0  0  0  0  0  0  0  0  0
    6.4161   -4.5281    0.0000 C   0  0  0  0  0  0  0  0  0  0  0  0
    5.7032   -4.9433    0.0000 C   0  0  0  0  0  0  0  0  0  0  0  0
    5.7032   -5.7659    0.0000 O   0  0  0  0  0  0  0  0  0  0  0  0
    4.9903   -4.5281    0.0000 C   0  0  0  0  0  0  0  0  0  0  0  0
    4.2774   -4.9433    0.0000 C   0  0  0  0  0  0  0  0  0  0  0  0
    4.2774   -5.7659    0.0000 O   0  0  0  0  0  0  0  0  0  0  0  0
    3.5724   -4.5281    0.0000 C   0  0  0  0  0  0  0  0  0  0  0  0
    2.8594   -4.9433    0.0000 C   0  0  0  0  0  0  0  0  0  0  0  0
    5.9696   -0.3682    0.0000 Cl  0  0  0  0  0  0  0  0  0  0  0  0
  1  2  1  0
  2  3  1  0
  3  4  2  0
  5  3  1  0
  5  6  1  6
  5  7  1  0
  5 39  1  0
  7  8  1  0
  8  9  1  6
  8 19  1  0
 10  9  1  1
 10 11  1  0
 10 18  1  0
 11 12  1  0
 12 13  1  6
 12 14  1  0
 14 15  1  6
 14 16  1  0
 16 17  1  6
 16 18  1  0
 19 20  1  0
 19 38  2  0
 20 21  1  0
 20 22  2  0
 22 23  1  0
 22 35  1  0
 23 24  2  0
 23 25  1  0
 25 26  2  0
 25 32  1  0
 26 27  1  0
 26 29  1  0
 27 28  1  0
 29 30  2  0
 30 31  1  0
 31 32  2  0
 32 33  1  0
 33 34  2  0
 33 35  1  0
 35 36  2  0
 36 37  1  0
 36 38  1  0
 38 39  1  0
M  END
>  <Formula>  (285) 
C27H30ClNO11

>  <FW>  (285) 
579.9802 (543.5193+36.4609)

>  <DSSTox_CID>  (285) 
10636

>  <SR-ARE>  (285) 
1

>  <SR-HSE>  (285) 
0

$$$$
NCGC00253591-01
     RDKit          2D

 24 27  0  0  0  0  0  0  0  0999 V2000
    1.4197    0.0000    0.0000 C   0  0  0  0  0  0  0  0  0  0  0  0
    0.7131   -0.4084    0.0000 O   0  0  0  0  0  0  0  0  0  0  0  0
    0.7131   -1.2317    0.0000 C   0  0  0  0  0  0  0  0  0  0  0  0
    0.0000   -1.6466    0.0000 C   0  0  0  0  0  0  0  0  0  0  0  0
    0.0000   -2.4699    0.0000 C   0  0  0  0  0  0  0  0  0  0  0  0
    0.7131   -2.8783    0.0000 N   0  0  0  0  0  0  0  0  0  0  0  0
    1.4197   -2.4699    0.0000 C   0  0  0  0  0  0  0  0  0  0  0  0
    1.4197   -1.6466    0.0000 C   0  0  0  0  0  0  0  0  0  0  0  0
    2.0680   -1.1345    0.0000 C   0  0  0  0  0  0  0  0  0  0  0  0
    2.8718   -1.3225    0.0000 C   0  0  0  0  0  0  0  0  0  0  0  0
    3.2284   -2.0550    0.0000 C   0  0  0  0  0  0  0  0  0  0  0  0
    2.8718   -2.8005    0.0000 C   0  0  0  0  0  0  0  0  0  0  0  0
    2.0680   -2.9885    0.0000 C   0  0  0  0  0  0  0  0  0  0  0  0
    1.8864   -3.7923    0.0000 S   0  0  0  0  0  0  0  0  0  0  0  0
    1.0891   -4.0322    0.0000 O   0  0  0  0  0  0  0  0  0  0  0  0
    2.4893   -4.3498    0.0000 C   0  0  0  0  0  0  0  0  0  0  0  0
    3.2932   -4.1878    0.0000 N   0  0  0  0  0  0  0  0  0  0  0  0
    3.7016   -4.9073    0.0000 C   0  0  0  0  0  0  0  0  0  0  0  0
    4.4989   -5.0954    0.0000 C   0  0  0  0  0  0  0  0  0  0  0  0
    4.7453   -5.8797    0.0000 C   0  0  0  0  0  0  0  0  0  0  0  0
    4.1813   -6.4826    0.0000 C   0  0  0  0  0  0  0  0  0  0  0  0
    3.3839   -6.3011    0.0000 C   0  0  0  0  0  0  0  0  0  0  0  0
    3.1376   -5.5103    0.0000 C   0  0  0  0  0  0  0  0  0  0  0  0
    2.3921   -5.1601    0.0000 N   0  0  0  0  0  0  0  0  0  0  0  0
  1  2  1  0
  2  3  1  0
  3  4  2  0
  3  8  1  0
  4  5  1  0
  5  6  2  0
  6  7  1  0
  7  8  2  0
  7 13  1  0
  8  9  1  0
  9 10  1  0
 10 11  1  0
 11 12  1  0
 12 13  1  0
 13 14  1  0
 14 15  2  0
 14 16  1  0
 16 17  2  0
 16 24  1  0
 17 18  1  0
 18 19  2  0
 18 23  1  0
 19 20  1  0
 20 21  2  0
 21 22  1  0
 22 23  2  0
 23 24  1  0
M  END
>  <Formula>  (286) 
C18H19N3O2S

>  <FW>  (286) 
341.4274

>  <DSSTox_CID>  (286) 
31442

>  <SR-ARE>  (286) 
1

>  <SR-HSE>  (286) 
0

$$$$
NCGC00164553-02
     RDKit          2D

 20 22  0  0  1  0  0  0  0  0999 V2000
    1.4749    0.0000    0.0000 N   0  0  0  0  0  0  0  0  0  0  0  0
    1.4648   -0.8239    0.0000 C   0  0  0  0  0  0  0  0  0  0  0  0
    0.7374   -1.2257    0.0000 N   0  0  0  0  0  0  0  0  0  0  0  0
    0.7273   -2.0496    0.0000 C   0  0  0  0  0  0  0  0  0  0  0  0
    1.4343   -2.4769    0.0000 N   0  0  0  0  0  0  0  0  0  0  0  0
    2.1615   -2.0700    0.0000 C   0  0  0  0  0  0  0  0  0  0  0  0
    2.1717   -1.2461    0.0000 C   0  0  0  0  0  0  0  0  0  0  0  0
    2.9549   -1.0070    0.0000 N   0  0  0  0  0  0  0  0  0  0  0  0
    3.4330   -1.6834    0.0000 C   0  0  0  0  0  0  0  0  0  0  0  0
    2.9346   -2.3396    0.0000 N   0  0  0  0  0  0  0  0  0  0  0  0
    2.8939   -3.6314    0.0000 C   0  0  0  0  0  0  0  0  0  0  0  0
    2.2378   -3.1329    0.0000 O   0  0  0  0  0  0  0  0  0  0  0  0
    1.5614   -3.6110    0.0000 C   0  0  0  0  0  0  0  0  0  0  0  0
    0.7883   -3.3517    0.0000 C   0  0  0  0  0  0  0  0  0  0  0  0
    0.1577   -3.9009    0.0000 O   0  0  0  0  0  0  0  0  0  0  0  0
    1.8004   -4.4095    0.0000 C   0  0  0  0  0  0  0  0  0  0  0  0
    1.3122   -5.0656    0.0000 O   0  0  0  0  0  0  0  0  0  0  0  0
    2.6396   -4.4197    0.0000 C   0  0  0  0  0  0  0  0  0  0  0  0
    3.1075   -5.0859    0.0000 F   0  0  0  0  0  0  0  0  0  0  0  0
    0.0000   -2.4464    0.0000 Cl  0  0  0  0  0  0  0  0  0  0  0  0
  1  2  1  0
  2  3  2  0
  2  7  1  0
  3  4  1  0
  4  5  2  0
  4 20  1  0
  5  6  1  0
  6  7  2  0
  6 10  1  0
  7  8  1  0
  8  9  2  0
  9 10  1  0
 11 10  1  1
 11 12  1  0
 11 18  1  0
 12 13  1  0
 13 14  1  1
 13 16  1  0
 14 15  1  0
 16 17  1  6
 16 18  1  0
 18 19  1  1
M  END
>  <Formula>  (287) 
C10H11ClFN5O3

>  <FW>  (287) 
303.6774

>  <DSSTox_CID>  (287) 
26437

>  <SR-ARE>  (287) 
1

>  <SR-HSE>  (287) 
0

$$$$
NCGC00015844-10
     RDKit          2D

 44 46  0  0  0  0  0  0  0  0999 V2000
    2.9440   -4.5886    0.0000 C   0  0  0  0  0  0  0  0  0  0  0  0
    5.1759   -2.3346    0.0000 C   0  0  0  0  0  0  0  0  0  0  0  0
    4.3903   -4.5886    0.0000 C   0  0  0  0  0  0  0  0  0  0  0  0
    2.9440   -1.2334    0.0000 C   0  0  0  0  0  0  0  0  0  0  0  0
    5.1759   -3.4946    0.0000 C   0  0  0  0  0  0  0  0  0  0  0  0
    2.1584   -2.3346    0.0000 C   0  0  0  0  0  0  0  0  0  0  0  0
    4.3903   -1.2334    0.0000 C   0  0  0  0  0  0  0  0  0  0  0  0
    2.1584   -3.4946    0.0000 C   0  0  0  0  0  0  0  0  0  0  0  0
    4.3903   -2.0703    0.0000 N   0  0  0  0  0  0  0  0  0  0  0  0
    2.9440   -3.7222    0.0000 N   0  0  0  0  0  0  0  0  0  0  0  0
    2.9440   -2.0703    0.0000 N   0  0  0  0  0  0  0  0  0  0  0  0
    4.3903   -3.7222    0.0000 N   0  0  0  0  0  0  0  0  0  0  0  0
    2.1584   -4.8161    0.0000 C   0  0  0  0  0  0  0  0  0  0  0  0
    5.1759   -4.8161    0.0000 C   0  0  0  0  0  0  0  0  0  0  0  0
    5.6531   -1.6739    0.0000 C   0  0  0  0  0  0  0  0  0  0  0  0
    2.1584   -0.9617    0.0000 C   0  0  0  0  0  0  0  0  0  0  0  0
    5.4035   -2.9367    0.0000 C   0  0  0  0  0  0  0  0  0  0  0  0
    3.6635   -4.9923    0.0000 C   0  0  0  0  0  0  0  0  0  0  0  0
    1.8501   -2.8926    0.0000 C   0  0  0  0  0  0  0  0  0  0  0  0
    3.6708   -0.8076    0.0000 C   0  0  0  0  0  0  0  0  0  0  0  0
    5.6531   -4.1480    0.0000 C   0  0  0  0  0  0  0  0  0  0  0  0
    1.6739   -1.6739    0.0000 C   0  0  0  0  0  0  0  0  0  0  0  0
    1.6739   -4.1480    0.0000 C   0  0  0  0  0  0  0  0  0  0  0  0
    5.1759   -0.9617    0.0000 C   0  0  0  0  0  0  0  0  0  0  0  0
    1.8575   -5.6237    0.0000 C   0  0  0  0  0  0  0  0  0  0  0  0
    5.4548   -5.6237    0.0000 C   0  0  0  0  0  0  0  0  0  0  0  0
    1.9235   -0.1909    0.0000 C   0  0  0  0  0  0  0  0  0  0  0  0
    6.4680   -1.6739    0.0000 C   0  0  0  0  0  0  0  0  0  0  0  0
    0.8369   -6.5561    0.0000 C   0  0  0  0  0  0  0  0  0  0  0  0
    6.5487   -6.5634    0.0000 C   0  0  0  0  0  0  0  0  0  0  0  0
    0.0000   -6.7029    0.0000 O   0  0  0  0  0  0  0  0  0  0  0  0
    7.3417   -6.7323    0.0000 O   0  0  0  0  0  0  0  0  0  0  0  0
    1.0645   -5.7485    0.0000 C   0  0  0  0  0  0  0  0  0  0  0  0
    6.2771   -5.7999    0.0000 C   0  0  0  0  0  0  0  0  0  0  0  0
    1.1306    0.0000    0.0000 C   0  0  0  0  0  0  0  0  0  0  0  0
    6.8865   -0.9911    0.0000 C   0  0  0  0  0  0  0  0  0  0  0  0
    1.3142   -7.2022    0.0000 O   0  0  0  0  0  0  0  0  0  0  0  0
    5.9908   -7.2022    0.0000 O   0  0  0  0  0  0  0  0  0  0  0  0
    0.8369   -1.6739    0.0000 C   0  0  0  0  0  0  0  0  0  0  0  0
    6.4973   -4.1480    0.0000 C   0  0  0  0  0  0  0  0  0  0  0  0
    5.4548   -0.1689    0.0000 C   0  0  0  0  0  0  0  0  0  0  0  0
    0.8369   -4.1480    0.0000 C   0  0  0  0  0  0  0  0  0  0  0  0
    2.3567   -7.1655    0.0000 Na  0  0  0  0  0 15  0  0  0  0  0  0
    5.1832   -7.1361    0.0000 Na  0  0  0  0  0 15  0  0  0  0  0  0
  1 10  2  0
  1 13  1  0
  1 18  1  0
  2 17  1  0
  2  9  2  0
  2 15  1  0
  3 18  2  0
  3 12  1  0
  3 14  1  0
  4 11  1  0
  4 20  1  0
  4 16  2  0
  5 12  1  0
  5 17  2  0
  5 21  1  0
  6 19  1  0
  6 11  1  0
  6 22  2  0
  7  9  1  0
  7 20  2  0
  7 24  1  0
  8 10  1  0
  8 19  2  0
  8 23  1  0
 13 23  2  0
 13 25  1  0
 14 21  2  0
 14 26  1  0
 15 24  2  0
 15 28  1  0
 16 22  1  0
 16 27  1  0
 21 40  1  0
 22 39  1  0
 23 42  1  0
 24 41  1  0
 25 33  1  0
 26 34  1  0
 27 35  2  0
 28 36  2  0
 29 33  1  0
 29 31  2  0
 29 37  1  0
 30 34  1  0
 30 32  2  0
 30 38  1  0
M  CHG  4  37  -1  38  -1  43   1  44   1
M  END
>  <Formula>  (288) 
C34H32N4Na2O4

>  <FW>  (288) 
606.6218 (560.6434+22.9892+22.9892)

>  <DSSTox_CID>  (288) 
26589

>  <SR-ARE>  (288) 
1

>  <SR-HSE>  (288) 
0

$$$$
NCGC00178877-03
     RDKit          2D

 28 28  0  0  1  0  0  0  0  0999 V2000
    5.9942   -4.6487    0.0000 Na  0  0  0  0  0 15  0  0  0  0  0  0
    2.6273   -4.3107    0.0000 O   0  0  0  0  0  0  0  0  0  0  0  0
    4.4064   -2.4870    0.0000 N   0  0  0  0  0  0  0  0  0  0  0  0
    4.4064   -1.6580    0.0000 C   0  0  0  0  0  0  0  0  0  0  0  0
    3.5774   -2.4870    0.0000 C   0  0  0  0  0  0  0  0  0  0  0  0
    3.5774   -1.6580    0.0000 C   0  0  0  0  0  0  0  0  0  0  0  0
    5.1780   -2.7421    0.0000 C   0  0  0  0  0  0  0  0  0  0  0  0
    5.1780   -1.4093    0.0000 S   0  0  0  0  0  0  0  0  0  0  0  0
    5.6754   -2.0725    0.0000 C   0  0  0  0  0  0  0  0  0  0  0  0
    2.1362   -1.6516    0.0000 C   0  0  0  0  0  0  0  0  0  0  0  0
    2.8568   -1.2307    0.0000 N   0  0  0  0  0  0  0  0  0  0  0  0
    1.4284   -1.2307    0.0000 C   0  0  0  0  0  0  0  0  0  0  0  0
    5.4458   -3.5200    0.0000 C   0  0  0  0  0  0  0  0  0  0  0  0
    2.9907   -3.0672    0.0000 O   0  0  0  0  0  0  0  0  0  0  0  0
    2.1362   -2.4806    0.0000 O   0  0  0  0  0  0  0  0  0  0  0  0
    1.4284   -0.4017    0.0000 C   0  0  0  0  0  0  0  0  0  0  0  0
    0.7078   -1.6516    0.0000 C   0  0  0  0  0  0  0  0  0  0  0  0
    6.2366   -3.6985    0.0000 O   0  0  0  0  0  0  0  0  0  0  0  0
    6.3768   -2.4870    0.0000 C   0  0  0  0  0  0  0  0  0  0  0  0
    6.3768   -1.6580    0.0000 C   0  0  0  0  0  0  0  0  0  0  0  0
    2.1362    0.0000    0.0000 O   0  0  0  0  0  0  0  0  0  0  0  0
    0.7078   -2.4806    0.0000 O   0  0  0  0  0  0  0  0  0  0  0  0
    0.0000   -0.4017    0.0000 C   0  0  0  0  0  0  0  0  0  0  0  0
    0.7078    0.0000    0.0000 C   0  0  0  0  0  0  0  0  0  0  0  0
    0.0000   -1.2307    0.0000 C   0  0  0  0  0  0  0  0  0  0  0  0
    2.8504   -0.4209    0.0000 C   0  0  0  0  0  0  0  0  0  0  0  0
    1.4220   -2.8823    0.0000 C   0  0  0  0  0  0  0  0  0  0  0  0
    4.8783   -4.1386    0.0000 O   0  0  0  0  0  0  0  0  0  0  0  0
  3  4  1  0
  3  5  1  0
  3  7  1  0
  4  8  1  1
  4  6  1  0
  5  6  1  0
  5 14  2  0
  6 11  1  1
  7  9  1  0
  7 13  1  6
  8  9  1  0
  9 19  1  0
  9 20  1  0
 10 11  1  0
 10 12  1  0
 10 15  2  0
 12 16  2  0
 12 17  1  0
 13 18  2  0
 13 28  1  0
 16 21  1  0
 16 24  1  0
 17 22  1  0
 17 25  2  0
 21 26  1  0
 22 27  1  0
 23 25  1  0
 23 24  2  0
M  CHG  2   1   1  28  -1
M  END
>  <Formula>  (289) 
C17H21N2NaO7S

>  <FW>  (289) 
420.4126 (22.9892+18.0153+379.4081)

>  <DSSTox_CID>  (289) 
25835

>  <SR-ARE>  (289) 
1

>  <SR-HSE>  (289) 
0

$$$$
NCGC00274068-01
     RDKit          2D

 49 55  0  0  1  0  0  0  0  0999 V2000
    2.6965   -4.3546    0.0000 N   0  0  0  0  0  0  0  0  0  0  0  0
    2.2006   -5.0366    0.0000 C   0  0  0  0  0  0  0  0  0  0  0  0
    1.4257   -4.7731    0.0000 N   0  0  0  0  0  0  0  0  0  0  0  0
    0.7593   -5.2535    0.0000 C   0  0  0  0  0  0  0  0  0  0  0  0
    0.8368   -6.0748    0.0000 C   0  0  0  0  0  0  0  0  0  0  0  0
    1.5962   -6.4158    0.0000 C   0  0  0  0  0  0  0  0  0  0  0  0
    0.0000   -4.9281    0.0000 C   0  0  0  0  0  0  0  0  0  0  0  0
    1.4257   -3.9517    0.0000 N   0  0  0  0  0  0  0  0  0  0  0  0
    2.2006   -3.6883    0.0000 C   0  0  0  0  0  0  0  0  0  0  0  0
    2.4640   -5.8114    0.0000 O   0  0  0  0  0  0  0  0  0  0  0  0
    3.5178   -4.3546    0.0000 C   0  0  0  0  0  0  0  0  0  0  0  0
    3.9207   -3.6418    0.0000 C   0  0  0  0  0  0  0  0  0  0  0  0
    4.7576   -3.6418    0.0000 C   0  0  0  0  0  0  0  0  0  0  0  0
    5.1605   -4.3546    0.0000 C   0  0  0  0  0  0  0  0  0  0  0  0
    5.9973   -4.3546    0.0000 N   0  0  0  0  0  0  0  0  0  0  0  0
    6.4003   -3.6418    0.0000 C   0  0  0  0  0  0  0  0  0  0  0  0
    7.2216   -3.6418    0.0000 C   0  0  0  0  0  0  0  0  0  0  0  0
    7.6400   -4.3546    0.0000 N   0  0  0  0  0  0  0  0  0  0  0  0
    7.2216   -5.0830    0.0000 C   0  0  0  0  0  0  0  0  0  0  0  0
    6.4003   -5.0830    0.0000 C   0  0  0  0  0  0  0  0  0  0  0  0
    8.4613   -4.3546    0.0000 C   0  0  0  0  0  0  0  0  0  0  0  0
    8.8798   -3.6418    0.0000 C   0  0  0  0  0  0  0  0  0  0  0  0
    9.7011   -3.6418    0.0000 C   0  0  0  0  0  0  0  0  0  0  0  0
   10.1195   -4.3546    0.0000 C   0  0  0  0  0  0  0  0  0  0  0  0
   10.9409   -4.3546    0.0000 O   0  0  0  0  0  0  0  0  0  0  0  0
   11.3593   -3.6418    0.0000 C   0  0  0  0  0  0  0  0  0  0  0  0
   12.1807   -3.6418    0.0000 C   0  0  0  0  0  0  0  0  0  0  0  0
   12.6611   -2.9754    0.0000 O   0  0  0  0  0  0  0  0  0  0  0  0
   13.4514   -3.2389    0.0000 C   0  0  0  0  0  0  0  0  0  0  0  0
   13.6219   -2.4331    0.0000 C   0  0  0  0  0  0  0  0  0  0  0  0
   13.0020   -1.8752    0.0000 C   0  0  0  0  0  0  0  0  0  0  0  0
   13.1725   -1.0693    0.0000 C   0  0  0  0  0  0  0  0  0  0  0  0
   13.9628   -0.8214    0.0000 C   0  0  0  0  0  0  0  0  0  0  0  0
   14.5827   -1.3638    0.0000 C   0  0  0  0  0  0  0  0  0  0  0  0
   14.3967   -2.1696    0.0000 C   0  0  0  0  0  0  0  0  0  0  0  0
   14.1333    0.0000    0.0000 Cl  0  0  0  0  0  0  0  0  0  0  0  0
   12.2271   -2.1386    0.0000 Cl  0  0  0  0  0  0  0  0  0  0  0  0
   14.2728   -3.3164    0.0000 C   0  0  0  0  0  0  0  0  0  0  0  0
   14.5982   -4.0757    0.0000 N   0  0  0  0  0  0  0  0  0  0  0  0
   14.1953   -4.7886    0.0000 N   0  0  0  0  0  0  0  0  0  0  0  0
   14.7376   -5.4085    0.0000 C   0  0  0  0  0  0  0  0  0  0  0  0
   15.4970   -5.0675    0.0000 N   0  0  0  0  0  0  0  0  0  0  0  0
   15.4040   -4.2462    0.0000 C   0  0  0  0  0  0  0  0  0  0  0  0
   13.4514   -4.0602    0.0000 O   0  0  0  0  0  0  0  0  0  0  0  0
   12.6611   -4.3082    0.0000 C   0  0  0  0  0  0  0  0  0  0  0  0
    9.7011   -5.0830    0.0000 C   0  0  0  0  0  0  0  0  0  0  0  0
    8.8798   -5.0830    0.0000 C   0  0  0  0  0  0  0  0  0  0  0  0
    4.7576   -5.0830    0.0000 C   0  0  0  0  0  0  0  0  0  0  0  0
    3.9207   -5.0830    0.0000 C   0  0  0  0  0  0  0  0  0  0  0  0
  1  2  1  0
  1  9  1  0
  1 11  1  0
  2  3  1  0
  2 10  2  0
  3  4  1  0
  3  8  1  0
  4  5  1  0
  4  7  1  0
  5  6  1  0
  8  9  2  0
 11 12  2  0
 11 49  1  0
 12 13  1  0
 13 14  2  0
 14 15  1  0
 14 48  1  0
 15 16  1  0
 15 20  1  0
 16 17  1  0
 17 18  1  0
 18 19  1  0
 18 21  1  0
 19 20  1  0
 21 22  2  0
 21 47  1  0
 22 23  1  0
 23 24  2  0
 24 25  1  0
 24 46  1  0
 25 26  1  0
 27 26  1  6
 27 28  1  0
 27 45  1  0
 28 29  1  0
 29 30  1  0
 29 38  1  6
 29 44  1  0
 30 31  2  0
 30 35  1  0
 31 32  1  0
 31 37  1  0
 32 33  2  0
 33 34  1  0
 33 36  1  0
 34 35  2  0
 38 39  1  0
 39 40  1  0
 39 43  1  0
 40 41  2  0
 41 42  1  0
 42 43  2  0
 44 45  1  0
 46 47  2  0
 48 49  2  0
M  END
>  <Formula>  (290) 
C35H38Cl2N8O4

>  <FW>  (290) 
705.6334

>  <DSSTox_CID>  (290) 
3180

>  <SR-ARE>  (290) 
1

>  <SR-HSE>  (290) 
0

$$$$
NCGC00179556-03
     RDKit          2D

 25 27  0  0  1  0  0  0  0  0999 V2000
    5.1037   -1.6500    0.0000 C   0  0  0  0  0  0  0  0  0  0  0  0
    5.9287   -2.4750    0.0000 N   0  0  0  0  0  0  0  0  0  0  0  0
    5.9287   -1.6500    0.0000 C   0  0  0  0  0  0  0  0  0  0  0  0
    5.1037   -2.4750    0.0000 C   0  0  0  0  0  0  0  0  0  0  0  0
    6.6566   -2.8956    0.0000 C   0  0  0  0  0  0  0  0  0  0  0  0
    7.3603   -2.4750    0.0000 C   0  0  0  0  0  0  0  0  0  0  0  0
    6.6566   -1.2456    0.0000 S   0  0  0  0  0  0  0  0  0  0  0  0
    7.3603   -1.6500    0.0000 C   0  0  0  0  0  0  0  0  0  0  0  0
    4.5294   -3.0492    0.0000 O   0  0  0  0  0  0  0  0  0  0  0  0
    8.0882   -2.8956    0.0000 C   0  0  0  0  0  0  0  0  0  0  0  0
    6.6566   -3.7206    0.0000 C   0  0  0  0  0  0  0  0  0  0  0  0
    7.3603   -4.1250    0.0000 O   0  0  0  0  0  0  0  0  0  0  0  0
    5.9287   -4.1250    0.0000 O   0  0  0  0  0  0  0  0  0  0  0  0
    4.2787   -1.6500    0.0000 N   0  0  0  0  0  0  0  0  0  0  0  0
    2.1595   -0.4206    0.0000 C   0  0  0  0  0  0  0  0  0  0  0  0
    2.1595   -1.2456    0.0000 C   0  0  0  0  0  0  0  0  0  0  0  0
    1.4236    0.0000    0.0000 C   0  0  0  0  0  0  0  0  0  0  0  0
    1.4236   -1.6500    0.0000 C   0  0  0  0  0  0  0  0  0  0  0  0
    0.7118   -0.4206    0.0000 C   0  0  0  0  0  0  0  0  0  0  0  0
    0.7118   -1.2456    0.0000 C   0  0  0  0  0  0  0  0  0  0  0  0
    3.5831   -0.4206    0.0000 O   0  0  0  0  0  0  0  0  0  0  0  0
    3.5831   -1.2456    0.0000 C   0  0  0  0  0  0  0  0  0  0  0  0
    2.8551   -1.6500    0.0000 C   0  0  0  0  0  0  0  0  0  0  0  0
    2.8551   -2.4750    0.0000 N   0  0  0  0  0  0  0  0  0  0  0  0
    0.0000    0.0000    0.0000 O   0  0  0  0  0  0  0  0  0  0  0  0
  1  3  1  0
  1  4  1  0
  1 14  1  1
  2  4  1  0
  2  5  1  0
  2  3  1  0
  3  7  1  1
  4  9  2  0
  5  6  2  0
  5 11  1  0
  6  8  1  0
  6 10  1  0
  7  8  1  0
 11 12  2  0
 11 13  1  0
 14 22  1  0
 15 17  2  0
 15 16  1  0
 16 18  2  0
 16 23  1  0
 17 19  1  0
 18 20  1  0
 19 20  2  0
 19 25  1  0
 21 22  2  0
 22 23  1  0
 23 24  1  6
M  END
>  <Formula>  (291) 
C16H17N3O5S

>  <FW>  (291) 
363.3883

>  <DSSTox_CID>  (291) 
2749

>  <SR-ARE>  (291) 
1

>  <SR-HSE>  (291) 
0

$$$$
NCGC00183104-02
     RDKit          2D

 29 31  0  0  0  0  0  0  0  0999 V2000
    2.8754   -3.5112    0.0000 C   0  0  0  0  0  0  0  0  0  0  0  0
    3.5819   -2.2678    0.0000 N   0  0  0  0  0  0  0  0  0  0  0  0
    3.5889   -3.1156    0.0000 C   0  0  0  0  0  0  0  0  0  0  0  0
    4.2389   -1.7662    0.0000 C   0  0  0  0  0  0  0  0  0  0  0  0
    2.1548   -3.1015    0.0000 C   0  0  0  0  0  0  0  0  0  0  0  0
    3.5889   -5.5670    0.0000 N   0  0  0  0  0  0  0  0  0  0  0  0
    1.4483   -3.4900    0.0000 C   0  0  0  0  0  0  0  0  0  0  0  0
    2.8754   -4.3307    0.0000 C   0  0  0  0  0  0  0  0  0  0  0  0
    3.9634   -0.9962    0.0000 N   0  0  0  0  0  0  0  0  0  0  0  0
    3.5889   -4.7264    0.0000 C   0  0  0  0  0  0  0  0  0  0  0  0
    4.3025   -3.5112    0.0000 C   0  0  0  0  0  0  0  0  0  0  0  0
    2.9036   -1.7874    0.0000 C   0  0  0  0  0  0  0  0  0  0  0  0
    3.1651   -0.9962    0.0000 C   0  0  0  0  0  0  0  0  0  0  0  0
    4.2884   -5.9768    0.0000 O   0  0  0  0  0  0  0  0  0  0  0  0
    5.0513   -2.0135    0.0000 C   0  0  0  0  0  0  0  0  0  0  0  0
    2.8754   -5.9768    0.0000 O   0  0  0  0  0  0  0  0  0  0  0  0
    0.7277   -3.1015    0.0000 C   0  0  0  0  0  0  0  0  0  0  0  0
    2.1548   -2.2960    0.0000 O   0  0  0  0  0  0  0  0  0  0  0  0
    4.3025   -4.3095    0.0000 C   0  0  0  0  0  0  0  0  0  0  0  0
    5.6660   -1.4483    0.0000 N   0  0  0  0  0  0  0  0  0  0  0  0
    0.7277   -2.2960    0.0000 Cl  0  0  0  0  0  0  0  0  0  0  0  0
    1.4483   -4.3307    0.0000 C   0  0  0  0  0  0  0  0  0  0  0  0
    0.0000   -3.5112    0.0000 C   0  0  0  0  0  0  0  0  0  0  0  0
    5.4682   -0.6288    0.0000 C   0  0  0  0  0  0  0  0  0  0  0  0
    6.4572   -1.6885    0.0000 C   0  0  0  0  0  0  0  0  0  0  0  0
    0.7277   -4.7405    0.0000 C   0  0  0  0  0  0  0  0  0  0  0  0
    5.9981    0.0000    0.0000 C   0  0  0  0  0  0  0  0  0  0  0  0
    7.0648   -1.1304    0.0000 C   0  0  0  0  0  0  0  0  0  0  0  0
    0.0000   -4.3307    0.0000 C   0  0  0  0  0  0  0  0  0  0  0  0
  1  3  1  0
  1  5  1  0
  1  8  2  0
  2  3  1  0
  2  4  1  0
  2 12  1  0
  3 11  2  0
  4  9  2  0
  4 15  1  0
  5  7  1  0
  5 18  2  0
  6 10  1  0
  6 14  1  0
  6 16  2  0
  7 17  2  0
  7 22  1  0
  8 10  1  0
  9 13  1  0
 10 19  2  0
 11 19  1  0
 12 13  2  0
 15 20  1  0
 17 21  1  0
 17 23  1  0
 20 24  1  0
 20 25  1  0
 22 26  2  0
 23 29  2  0
 24 27  1  0
 25 28  1  0
 26 29  1  0
M  CHG  2   6   1  14  -1
M  END
>  <Formula>  (292) 
C21H21ClN4O3

>  <FW>  (292) 
412.8694

>  <DSSTox_CID>  (292) 
28563

>  <SR-ARE>  (292) 
1

>  <SR-HSE>  (292) 
0

$$$$
NCGC00092314-04
     RDKit          2D

 23 26  0  0  1  0  0  0  0  0999 V2000
    2.3580   -1.6383    0.0000 C   0  0  0  0  0  0  0  0  0  0  0  0
    2.3580   -2.4516    0.0000 C   0  0  0  0  0  0  0  0  0  0  0  0
    3.0601   -1.2287    0.0000 C   0  0  0  0  0  0  0  0  0  0  0  0
    1.6500   -1.2287    0.0000 C   0  0  0  0  0  0  0  0  0  0  0  0
    3.1420   -2.6623    0.0000 N   0  0  0  0  0  0  0  0  0  0  0  0
    1.6500   -2.8671    0.0000 N   0  0  0  0  0  0  0  0  0  0  0  0
    3.6394   -1.7963    0.0000 C   0  0  0  0  0  0  0  0  0  0  0  0
    3.0601   -0.4037    0.0000 C   0  0  0  0  0  0  0  0  0  0  0  0
    1.6500   -0.4037    0.0000 N   0  0  0  0  0  0  0  0  0  0  0  0
    0.9304   -1.6383    0.0000 N   0  0  0  0  0  0  0  0  0  0  0  0
    0.9304   -2.4516    0.0000 C   0  0  0  0  0  0  0  0  0  0  0  0
    2.3580    0.0000    0.0000 N   0  0  0  0  0  0  0  0  0  0  0  0
    3.7681    0.0000    0.0000 N   0  0  0  0  0  0  0  0  0  0  0  0
    0.9304    0.0000    0.0000 C   0  0  0  0  0  0  0  0  0  0  0  0
    3.1245   -4.1894    0.0000 C   0  0  0  0  0  0  0  0  0  0  0  0
    2.3580   -3.6394    0.0000 O   0  0  0  0  0  0  0  0  0  0  0  0
    2.8261   -5.0847    0.0000 C   0  0  0  0  0  0  0  0  0  0  0  0
    1.5974   -4.1894    0.0000 C   0  0  0  0  0  0  0  0  0  0  0  0
    1.8841   -5.0847    0.0000 C   0  0  0  0  0  0  0  0  0  0  0  0
    3.3878   -5.8511    0.0000 O   0  0  0  0  0  0  0  0  0  0  0  0
    0.6963   -3.8968    0.0000 C   0  0  0  0  0  0  0  0  0  0  0  0
    1.3341   -5.8511    0.0000 O   0  0  0  0  0  0  0  0  0  0  0  0
    0.0000   -4.5346    0.0000 O   0  0  0  0  0  0  0  0  0  0  0  0
  1  2  1  0
  1  3  1  0
  1  4  2  0
  2  5  1  0
  2  6  2  0
  3  7  2  0
  3  8  1  0
  4  9  1  0
  4 10  1  0
  5  7  1  0
 15  5  1  1
  6 11  1  0
  8 12  2  0
  8 13  1  0
  9 14  1  0
  9 12  1  0
 10 11  2  0
 15 16  1  0
 15 17  1  0
 16 18  1  0
 17 19  1  0
 17 20  1  6
 18 21  1  1
 18 19  1  0
 19 22  1  6
 21 23  1  0
M  END
>  <Formula>  (293) 
C13H16N6O4

>  <FW>  (293) 
320.3039

>  <DSSTox_CID>  (293) 
25743

>  <SR-ARE>  (293) 
1

>  <SR-HSE>  (293) 
0

$$$$
NCGC00179310-03
     RDKit          2D

 31 34  0  0  1  0  0  0  0  0999 V2000
    4.9930   -2.0465    0.0000 N   0  0  0  0  0  0  0  0  0  0  0  0
    4.9930   -1.2215    0.0000 C   0  0  0  0  0  0  0  0  0  0  0  0
    5.7109   -2.4751    0.0000 C   0  0  0  0  0  0  0  0  0  0  0  0
    4.1680   -2.0465    0.0000 C   0  0  0  0  0  0  0  0  0  0  0  0
    4.1680   -1.2215    0.0000 C   0  0  0  0  0  0  0  0  0  0  0  0
    5.7109   -0.8250    0.0000 S   0  0  0  0  0  0  0  0  0  0  0  0
    6.4288   -2.0465    0.0000 C   0  0  0  0  0  0  0  0  0  0  0  0
    5.7109   -3.3001    0.0000 C   0  0  0  0  0  0  0  0  0  0  0  0
    3.5787   -2.6358    0.0000 O   0  0  0  0  0  0  0  0  0  0  0  0
    3.4501   -0.8250    0.0000 N   0  0  0  0  0  0  0  0  0  0  0  0
    6.4288   -1.2215    0.0000 C   0  0  0  0  0  0  0  0  0  0  0  0
    7.1360   -2.4751    0.0000 C   0  0  0  0  0  0  0  0  0  0  0  0
    6.4288   -3.6965    0.0000 O   0  0  0  0  0  0  0  0  0  0  0  0
    4.9930   -3.6965    0.0000 O   0  0  0  0  0  0  0  0  0  0  0  0
    2.7429   -1.2429    0.0000 C   0  0  0  0  0  0  0  0  0  0  0  0
    7.8538   -2.0465    0.0000 N   0  0  0  0  0  0  0  0  0  0  0  0
    2.0251   -0.8250    0.0000 C   0  0  0  0  0  0  0  0  0  0  0  0
    2.7429   -2.0679    0.0000 O   0  0  0  0  0  0  0  0  0  0  0  0
    7.8538   -1.2215    0.0000 C   0  0  0  0  0  0  0  0  0  0  0  0
    8.5610   -2.4751    0.0000 C   0  0  0  0  0  0  0  0  0  0  0  0
    1.3179   -1.2429    0.0000 C   0  0  0  0  0  0  0  0  0  0  0  0
    8.5610   -0.8250    0.0000 C   0  0  0  0  0  0  0  0  0  0  0  0
    9.2896   -2.0465    0.0000 C   0  0  0  0  0  0  0  0  0  0  0  0
    0.5571   -0.9001    0.0000 C   0  0  0  0  0  0  0  0  0  0  0  0
    1.2215   -2.0465    0.0000 S   0  0  0  0  0  0  0  0  0  0  0  0
    9.2896   -1.2215    0.0000 C   0  0  0  0  0  0  0  0  0  0  0  0
    0.0000   -1.5108    0.0000 C   0  0  0  0  0  0  0  0  0  0  0  0
    0.4179   -2.2287    0.0000 C   0  0  0  0  0  0  0  0  0  0  0  0
    9.9968   -0.8250    0.0000 C   0  0  0  0  0  0  0  0  0  0  0  0
    9.9968    0.0000    0.0000 N   0  0  0  0  0  0  0  0  0  0  0  0
   10.7146   -1.2215    0.0000 O   0  0  0  0  0  0  0  0  0  0  0  0
  1  2  1  0
  1  3  1  0
  1  4  1  0
  2  5  1  0
  2  6  1  1
  3  7  2  0
  3  8  1  0
  4  9  2  0
  4  5  1  0
  5 10  1  1
  6 11  1  0
  7 12  1  0
  7 11  1  0
  8 13  2  0
  8 14  1  0
 10 15  1  0
 12 16  1  0
 15 17  1  0
 15 18  2  0
 16 19  2  0
 16 20  1  0
 17 21  1  0
 19 22  1  0
 20 23  2  0
 21 24  2  0
 21 25  1  0
 22 26  2  0
 23 26  1  0
 24 27  1  0
 25 28  1  0
 26 29  1  0
 27 28  2  0
 29 30  1  0
 29 31  2  0
M  CHG  2  14  -1  16   1
M  END
>  <Formula>  (294) 
C20H18N4O5S2

>  <FW>  (294) 
458.5107

>  <DSSTox_CID>  (294) 
25388

>  <SR-ARE>  (294) 
1

>  <SR-HSE>  (294) 
0

$$$$
NCGC00182047-03
     RDKit          2D

 20 22  0  0  1  0  0  0  0  0999 V2000
    2.8554   -2.2379    0.0000 N   0  0  0  0  0  0  0  0  0  0  0  0
    2.1094   -2.0057    0.0000 C   0  0  0  0  0  0  0  0  0  0  0  0
    2.1094   -1.1955    0.0000 C   0  0  0  0  0  0  0  0  0  0  0  0
    2.8554   -0.9535    0.0000 N   0  0  0  0  0  0  0  0  0  0  0  0
    3.3198   -1.6055    0.0000 C   0  0  0  0  0  0  0  0  0  0  0  0
    1.4129   -0.7954    0.0000 C   0  0  0  0  0  0  0  0  0  0  0  0
    1.4129   -2.4058    0.0000 N   0  0  0  0  0  0  0  0  0  0  0  0
    0.7311   -1.1955    0.0000 N   0  0  0  0  0  0  0  0  0  0  0  0
    0.7311   -2.0057    0.0000 C   0  0  0  0  0  0  0  0  0  0  0  0
    1.4129    0.0000    0.0000 N   0  0  0  0  0  0  0  0  0  0  0  0
    2.8554   -3.4334    0.0000 C   0  0  0  0  0  0  0  0  0  0  0  0
    1.5068   -3.4334    0.0000 C   0  0  0  0  0  0  0  0  0  0  0  0
    2.1885   -2.9443    0.0000 O   0  0  0  0  0  0  0  0  0  0  0  0
    1.7735   -4.2287    0.0000 C   0  0  0  0  0  0  0  0  0  0  0  0
    2.5985   -4.2287    0.0000 C   0  0  0  0  0  0  0  0  0  0  0  0
    1.3635   -4.9401    0.0000 O   0  0  0  0  0  0  0  0  0  0  0  0
    3.0777   -4.8907    0.0000 O   0  0  0  0  0  0  0  0  0  0  0  0
    0.7114   -3.1666    0.0000 C   0  0  0  0  0  0  0  0  0  0  0  0
    0.1037   -3.7298    0.0000 O   0  0  0  0  0  0  0  0  0  0  0  0
    0.0000   -2.4058    0.0000 F   0  0  0  0  0  0  0  0  0  0  0  0
  1  2  1  0
  1  5  1  0
 11  1  1  1
  2  3  2  0
  2  7  1  0
  3  6  1  0
  3  4  1  0
  4  5  2  0
  6 10  1  0
  6  8  2  0
  7  9  2  0
  8  9  1  0
  9 20  1  0
 11 13  1  0
 11 15  1  0
 12 13  1  0
 12 14  1  0
 12 18  1  1
 14 15  1  0
 14 16  1  6
 15 17  1  1
 18 19  1  0
M  END
>  <Formula>  (295) 
C10H12FN5O4

>  <FW>  (295) 
285.2318

>  <DSSTox_CID>  (295) 
19657

>  <SR-ARE>  (295) 
1

>  <SR-HSE>  (295) 
0

$$$$
NCGC00016819-05
     RDKit          2D

 37 40  0  0  0  0  0  0  0  0999 V2000
    9.4821   -0.8143    0.0000 C   0  0  0  0  0  0  0  0  0  0  0  0
   10.3071   -0.8143    0.0000 O   0  0  0  0  0  0  0  0  0  0  0  0
   10.7143   -0.0964    0.0000 C   0  0  0  0  0  0  0  0  0  0  0  0
    9.0643   -0.0964    0.0000 C   0  0  0  0  0  0  0  0  0  0  0  0
    8.2393   -0.0964    0.0000 C   0  0  0  0  0  0  0  0  0  0  0  0
    7.8321   -0.8143    0.0000 C   0  0  0  0  0  0  0  0  0  0  0  0
    8.2393   -1.5214    0.0000 C   0  0  0  0  0  0  0  0  0  0  0  0
    9.0643   -1.5214    0.0000 C   0  0  0  0  0  0  0  0  0  0  0  0
    7.8321   -2.2393    0.0000 C   0  0  0  0  0  0  0  0  0  0  0  0
    8.2393   -2.9571    0.0000 O   0  0  0  0  0  0  0  0  0  0  0  0
    7.0071   -2.2393    0.0000 N   0  0  0  0  0  0  0  0  0  0  0  0
    6.5893   -2.9571    0.0000 C   0  0  0  0  0  0  0  0  0  0  0  0
    5.7643   -2.9571    0.0000 C   0  0  0  0  0  0  0  0  0  0  0  0
    5.3571   -3.6643    0.0000 C   0  0  0  0  0  0  0  0  0  0  0  0
    4.5321   -3.6643    0.0000 C   0  0  0  0  0  0  0  0  0  0  0  0
    4.1250   -4.3821    0.0000 C   0  0  0  0  0  0  0  0  0  0  0  0
    4.5321   -5.1000    0.0000 C   0  0  0  0  0  0  0  0  0  0  0  0
    4.1250   -5.8072    0.0000 S   0  0  0  0  0  0  0  0  0  0  0  0
    3.4071   -5.4000    0.0000 O   0  0  0  0  0  0  0  0  0  0  0  0
    4.8321   -6.2250    0.0000 O   0  0  0  0  0  0  0  0  0  0  0  0
    3.7071   -6.5250    0.0000 N   0  0  0  0  0  0  0  0  0  0  0  0
    2.8821   -6.5250    0.0000 C   0  0  0  0  0  0  0  0  0  0  0  0
    2.4750   -5.8072    0.0000 O   0  0  0  0  0  0  0  0  0  0  0  0
    2.4750   -7.2322    0.0000 N   0  0  0  0  0  0  0  0  0  0  0  0
    1.6500   -7.2322    0.0000 C   0  0  0  0  0  0  0  0  0  0  0  0
    1.2321   -7.9500    0.0000 C   0  0  0  0  0  0  0  0  0  0  0  0
    0.4071   -7.9500    0.0000 C   0  0  0  0  0  0  0  0  0  0  0  0
    0.0000   -7.2322    0.0000 C   0  0  0  0  0  0  0  0  0  0  0  0
    0.4071   -6.5250    0.0000 C   0  0  0  0  0  0  0  0  0  0  0  0
    1.2321   -6.5250    0.0000 C   0  0  0  0  0  0  0  0  0  0  0  0
    5.3571   -5.1000    0.0000 C   0  0  0  0  0  0  0  0  0  0  0  0
    5.7643   -4.3821    0.0000 C   0  0  0  0  0  0  0  0  0  0  0  0
    6.5893   -1.5214    0.0000 C   0  0  0  0  0  0  0  0  0  0  0  0
    5.7643   -1.5214    0.0000 O   0  0  0  0  0  0  0  0  0  0  0  0
    7.0071   -0.8143    0.0000 C   0  0  0  0  0  0  0  0  0  0  0  0
    7.1464    0.0000    0.0000 C   0  0  0  0  0  0  0  0  0  0  0  0
    6.2357   -0.5357    0.0000 C   0  0  0  0  0  0  0  0  0  0  0  0
  1  2  1  0
  1  4  2  0
  1  8  1  0
  2  3  1  0
  4  5  1  0
  5  6  2  0
  6  7  1  0
  6 35  1  0
  7  8  2  0
  7  9  1  0
  9 10  2  0
  9 11  1  0
 11 12  1  0
 11 33  1  0
 12 13  1  0
 13 14  1  0
 14 15  2  0
 14 32  1  0
 15 16  1  0
 16 17  2  0
 17 18  1  0
 17 31  1  0
 18 19  2  0
 18 20  2  0
 18 21  1  0
 21 22  1  0
 22 23  2  0
 22 24  1  0
 24 25  1  0
 25 26  1  0
 25 30  1  0
 26 27  1  0
 27 28  1  0
 28 29  1  0
 29 30  1  0
 31 32  2  0
 33 34  2  0
 33 35  1  0
 35 36  1  0
 35 37  1  0
M  END
>  <Formula>  (296) 
C27H33N3O6S

>  <FW>  (296) 
527.6324

>  <DSSTox_CID>  (296) 
3096

>  <SR-ARE>  (296) 
1

>  <SR-HSE>  (296) 
0

$$$$
NCGC00167533-02
     RDKit          2D

 47 49  0  0  0  0  0  0  0  0999 V2000
    0.0000   -2.8348    0.0000 C   0  0  0  0  0  0  0  0  0  0  0  0
    0.6178   -2.2776    0.0000 C   0  0  0  0  0  0  0  0  0  0  0  0
    1.4053   -2.5320    0.0000 C   0  0  0  0  0  0  0  0  0  0  0  0
    2.0110   -1.9747    0.0000 C   0  0  0  0  0  0  0  0  0  0  0  0
    1.9384   -1.1630    0.0000 N   0  0  0  0  0  0  0  0  0  0  0  0
    2.6895   -0.8238    0.0000 C   0  0  0  0  0  0  0  0  0  0  0  0
    3.2347   -1.4295    0.0000 C   0  0  0  0  0  0  0  0  0  0  0  0
    2.8348   -2.1443    0.0000 N   0  0  0  0  0  0  0  0  0  0  0  0
    3.2347   -2.8712    0.0000 N   0  0  0  0  0  0  0  0  0  0  0  0
    4.0706   -2.8712    0.0000 C   0  0  0  0  0  0  0  0  0  0  0  0
    4.4825   -2.1443    0.0000 N   0  0  0  0  0  0  0  0  0  0  0  0
    4.0706   -1.4295    0.0000 C   0  0  0  0  0  0  0  0  0  0  0  0
    4.4825   -0.7148    0.0000 O   0  0  0  0  0  0  0  0  0  0  0  0
    4.4825   -3.5981    0.0000 C   0  0  0  0  0  0  0  0  0  0  0  0
    5.3305   -3.5981    0.0000 C   0  0  0  0  0  0  0  0  0  0  0  0
    5.7303   -4.3008    0.0000 C   0  0  0  0  0  0  0  0  0  0  0  0
    5.3305   -5.0155    0.0000 C   0  0  0  0  0  0  0  0  0  0  0  0
    4.4825   -5.0155    0.0000 C   0  0  0  0  0  0  0  0  0  0  0  0
    4.0706   -4.3008    0.0000 C   0  0  0  0  0  0  0  0  0  0  0  0
    3.2347   -4.3008    0.0000 O   0  0  0  0  0  0  0  0  0  0  0  0
    2.8348   -5.0155    0.0000 C   0  0  0  0  0  0  0  0  0  0  0  0
    3.2831   -5.7182    0.0000 C   0  0  0  0  0  0  0  0  0  0  0  0
    6.5662   -4.3008    0.0000 S   0  0  0  0  0  0  0  0  0  0  0  0
    7.3900   -4.3008    0.0000 O   0  0  0  0  0  0  0  0  0  0  0  0
    6.5662   -5.1246    0.0000 O   0  0  0  0  0  0  0  0  0  0  0  0
    6.5662   -3.4770    0.0000 N   0  0  0  0  0  0  0  0  0  0  0  0
    5.8393   -3.0650    0.0000 C   0  0  0  0  0  0  0  0  0  0  0  0
    5.8393   -2.2291    0.0000 C   0  0  0  0  0  0  0  0  0  0  0  0
    6.5662   -1.8172    0.0000 N   0  0  0  0  0  0  0  0  0  0  0  0
    6.5662   -0.9934    0.0000 C   0  0  0  0  0  0  0  0  0  0  0  0
    7.2567   -0.5452    0.0000 C   0  0  0  0  0  0  0  0  0  0  0  0
    7.2810   -2.2291    0.0000 C   0  0  0  0  0  0  0  0  0  0  0  0
    7.2810   -3.0650    0.0000 C   0  0  0  0  0  0  0  0  0  0  0  0
    2.8591    0.0000    0.0000 C   0  0  0  0  0  0  0  0  0  0  0  0
   10.0553   -2.8470    0.0000 C   0  0  0  0  0  0  0  0  0  0  0  0
   10.8791   -2.8470    0.0000 C   0  0  0  0  0  0  0  0  0  0  0  0
    9.2072   -2.8470    0.0000 C   0  0  0  0  0  0  0  0  0  0  0  0
   10.0553   -3.6708    0.0000 C   0  0  0  0  0  0  0  0  0  0  0  0
    9.3284   -4.0827    0.0000 O   0  0  0  0  0  0  0  0  0  0  0  0
    8.8074   -2.1443    0.0000 C   0  0  0  0  0  0  0  0  0  0  0  0
    7.9715   -2.1443    0.0000 O   0  0  0  0  0  0  0  0  0  0  0  0
    9.2072   -1.4053    0.0000 O   0  0  0  0  0  0  0  0  0  0  0  0
   11.2910   -2.1322    0.0000 C   0  0  0  0  0  0  0  0  0  0  0  0
   10.8670   -1.4053    0.0000 O   0  0  0  0  0  0  0  0  0  0  0  0
   12.1148   -2.1322    0.0000 O   0  0  0  0  0  0  0  0  0  0  0  0
   10.0553   -2.0232    0.0000 O   0  0  0  0  0  0  0  0  0  0  0  0
   10.7701   -4.0827    0.0000 O   0  0  0  0  0  0  0  0  0  0  0  0
  1  2  1  0
  2  3  1  0
  3  4  1  0
  4  5  2  0
  4  8  1  0
  5  6  1  0
  6  7  2  0
  6 34  1  0
  7  8  1  0
  7 12  1  0
  8  9  1  0
  9 10  1  0
 10 11  2  0
 10 14  1  0
 11 12  1  0
 12 13  2  0
 14 15  2  0
 14 19  1  0
 15 16  1  0
 16 17  2  0
 16 23  1  0
 17 18  1  0
 18 19  2  0
 19 20  1  0
 20 21  1  0
 21 22  1  0
 23 24  2  0
 23 25  2  0
 23 26  1  0
 26 27  1  0
 26 33  1  0
 27 28  1  0
 28 29  1  0
 29 30  1  0
 29 32  1  0
 30 31  1  0
 32 33  1  0
 35 38  1  0
 35 37  1  0
 35 46  1  0
 35 36  1  0
 36 43  1  0
 37 40  1  0
 38 39  1  0
 38 47  2  0
 40 41  1  0
 40 42  2  0
 43 44  2  0
 43 45  1  0
M  END
>  <Formula>  (297) 
C29H40N6O11S

>  <FW>  (297) 
680.7265 (488.6030+192.1235)

>  <DSSTox_CID>  (297) 
26696

>  <SR-ARE>  (297) 
1

>  <SR-HSE>  (297) 
0

$$$$
NCGC00022653-09
     RDKit          2D

 29 32  0  0  1  0  0  0  0  0999 V2000
    4.3188   -1.2479    0.0000 C   0  0  0  0  0  0  0  0  0  0  0  0
    5.1435   -2.0618    0.0000 N   0  0  0  0  0  0  0  0  0  0  0  0
    5.1435   -1.2479    0.0000 C   0  0  0  0  0  0  0  0  0  0  0  0
    4.3188   -2.0618    0.0000 C   0  0  0  0  0  0  0  0  0  0  0  0
    5.8597   -2.4850    0.0000 C   0  0  0  0  0  0  0  0  0  0  0  0
    6.5759   -2.0618    0.0000 C   0  0  0  0  0  0  0  0  0  0  0  0
    5.8597   -0.8247    0.0000 S   0  0  0  0  0  0  0  0  0  0  0  0
    6.5759   -1.2370    0.0000 C   0  0  0  0  0  0  0  0  0  0  0  0
    3.7328   -2.6477    0.0000 O   0  0  0  0  0  0  0  0  0  0  0  0
    7.3030   -2.4850    0.0000 C   0  0  0  0  0  0  0  0  0  0  0  0
    5.8597   -3.2988    0.0000 C   0  0  0  0  0  0  0  0  0  0  0  0
    6.5759   -3.7220    0.0000 O   0  0  0  0  0  0  0  0  0  0  0  0
    5.1544   -3.7220    0.0000 O   0  0  0  0  0  0  0  0  0  0  0  0
    3.4941   -1.2479    0.0000 N   0  0  0  0  0  0  0  0  0  0  0  0
    2.7779    0.0000    0.0000 O   0  0  0  0  0  0  0  0  0  0  0  0
    2.7779   -0.8247    0.0000 C   0  0  0  0  0  0  0  0  0  0  0  0
    2.0509   -1.2479    0.0000 C   0  0  0  0  0  0  0  0  0  0  0  0
    8.0083   -2.0618    0.0000 S   0  0  0  0  0  0  0  0  0  0  0  0
    8.7136   -2.4958    0.0000 C   0  0  0  0  0  0  0  0  0  0  0  0
    9.3864   -2.0183    0.0000 S   0  0  0  0  0  0  0  0  0  0  0  0
   10.0592   -2.4958    0.0000 C   0  0  0  0  0  0  0  0  0  0  0  0
    8.9740   -3.2880    0.0000 N   0  0  0  0  0  0  0  0  0  0  0  0
    9.7988   -3.2880    0.0000 N   0  0  0  0  0  0  0  0  0  0  0  0
   10.8514   -2.2354    0.0000 C   0  0  0  0  0  0  0  0  0  0  0  0
    1.3456   -0.8247    0.0000 N   0  0  0  0  0  0  0  0  0  0  0  0
    0.6619   -1.3130    0.0000 C   0  0  0  0  0  0  0  0  0  0  0  0
    1.0851   -0.0434    0.0000 N   0  0  0  0  0  0  0  0  0  0  0  0
    0.0000   -0.8247    0.0000 N   0  0  0  0  0  0  0  0  0  0  0  0
    0.2604   -0.0434    0.0000 N   0  0  0  0  0  0  0  0  0  0  0  0
  1  3  1  0
  1  4  1  0
  1 14  1  1
  2  4  1  0
  2  5  1  0
  2  3  1  0
  3  7  1  1
  4  9  2  0
  5  6  2  0
  5 11  1  0
  6  8  1  0
  6 10  1  0
  7  8  1  0
 10 18  1  0
 11 12  2  0
 11 13  1  0
 14 16  1  0
 15 16  2  0
 16 17  1  0
 17 25  1  0
 18 19  1  0
 19 20  1  0
 19 22  2  0
 20 21  1  0
 21 23  2  0
 21 24  1  0
 22 23  1  0
 25 26  1  0
 25 27  1  0
 26 28  2  0
 27 29  2  0
 28 29  1  0
M  END
>  <Formula>  (298) 
C14H14N8O4S3

>  <FW>  (298) 
454.5072

>  <DSSTox_CID>  (298) 
2753

>  <SR-ARE>  (298) 
1

>  <SR-HSE>  (298) 
0

$$$$
NCGC00253967-01
     RDKit          2D

 36 40  0  0  1  0  0  0  0  0999 V2000
    8.8110   -2.5852    0.0000 C   0  0  0  0  0  0  0  0  0  0  0  0
    9.7004   -3.1544    0.0000 C   0  0  0  0  0  0  0  0  0  0  0  0
    8.5501   -3.3560    0.0000 O   0  0  0  0  0  0  0  0  0  0  0  0
    1.2570   -3.2848    0.0000 N   0  0  0  0  0  0  0  0  0  0  0  0
    8.1587   -2.1109    0.0000 O   0  0  0  0  0  0  0  0  0  0  0  0
    2.9173   -3.2848    0.0000 N   0  0  0  0  0  0  0  0  0  0  0  0
    9.7004   -3.9845    0.0000 C   0  0  0  0  0  0  0  0  0  0  0  0
    9.4276   -1.2689    0.0000 N   0  0  0  0  0  0  0  0  0  0  0  0
    9.0126    0.0000    0.0000 N   0  0  0  0  0  0  0  0  0  0  0  0
    0.4150   -3.2848    0.0000 C   0  0  0  0  0  0  0  0  0  0  0  0
    9.4276   -2.0990    0.0000 C   0  0  0  0  0  0  0  0  0  0  0  0
   10.4119   -2.7394    0.0000 C   0  0  0  0  0  0  0  0  0  0  0  0
    8.7517   -0.7827    0.0000 C   0  0  0  0  0  0  0  0  0  0  0  0
   10.4119   -4.3996    0.0000 C   0  0  0  0  0  0  0  0  0  0  0  0
    3.7355   -3.2848    0.0000 C   0  0  0  0  0  0  0  0  0  0  0  0
    7.7319   -3.3560    0.0000 C   0  0  0  0  0  0  0  0  0  0  0  0
    9.8427    0.0000    0.0000 C   0  0  0  0  0  0  0  0  0  0  0  0
    1.6958   -2.5615    0.0000 C   0  0  0  0  0  0  0  0  0  0  0  0
    1.6602   -3.9845    0.0000 C   0  0  0  0  0  0  0  0  0  0  0  0
    2.4903   -3.9845    0.0000 C   0  0  0  0  0  0  0  0  0  0  0  0
    2.5140   -2.5615    0.0000 C   0  0  0  0  0  0  0  0  0  0  0  0
   10.0917   -0.7827    0.0000 C   0  0  0  0  0  0  0  0  0  0  0  0
    0.0356   -2.5615    0.0000 O   0  0  0  0  0  0  0  0  0  0  0  0
    7.5066   -2.5734    0.0000 C   0  0  0  0  0  0  0  0  0  0  0  0
    4.1506   -3.9845    0.0000 C   0  0  0  0  0  0  0  0  0  0  0  0
    4.1743   -2.5615    0.0000 C   0  0  0  0  0  0  0  0  0  0  0  0
   11.1353   -3.9845    0.0000 C   0  0  0  0  0  0  0  0  0  0  0  0
    8.9770   -4.3996    0.0000 Cl  0  0  0  0  0  0  0  0  0  0  0  0
    6.2140   -3.2848    0.0000 O   0  0  0  0  0  0  0  0  0  0  0  0
   11.1353   -3.1544    0.0000 C   0  0  0  0  0  0  0  0  0  0  0  0
    5.3838   -3.2848    0.0000 C   0  0  0  0  0  0  0  0  0  0  0  0
    6.9373   -3.7473    0.0000 C   0  0  0  0  0  0  0  0  0  0  0  0
    4.9807   -2.5615    0.0000 C   0  0  0  0  0  0  0  0  0  0  0  0
    4.9451   -3.9845    0.0000 C   0  0  0  0  0  0  0  0  0  0  0  0
   11.8587   -4.3996    0.0000 Cl  0  0  0  0  0  0  0  0  0  0  0  0
    0.0000   -3.9845    0.0000 C   0  0  0  0  0  0  0  0  0  0  0  0
  1  2  1  0
  1  3  1  0
  1  5  1  0
  1 11  1  1
  2  7  2  0
  2 12  1  0
  3 16  1  0
  4 18  1  0
  4 10  1  0
  4 19  1  0
  5 24  1  0
  6 15  1  0
  6 20  1  0
  6 21  1  0
  7 14  1  0
  7 28  1  0
  8 11  1  0
  8 13  1  0
  8 22  1  0
  9 13  2  0
  9 17  1  0
 10 23  2  0
 10 36  1  0
 12 30  2  0
 14 27  2  0
 15 25  2  0
 15 26  1  0
 16 32  1  1
 16 24  1  0
 17 22  2  0
 18 21  1  0
 19 20  1  0
 25 34  1  0
 26 33  2  0
 27 30  1  0
 27 35  1  0
 29 32  1  0
 29 31  1  0
 31 33  1  0
 31 34  2  0
M  END
>  <Formula>  (299) 
C26H28Cl2N4O4

>  <FW>  (299) 
531.4309

>  <DSSTox_CID>  (299) 
9879

>  <NR-AR>  (299) 
0

>  <NR-AhR>  (299) 
1

>  <SR-ARE>  (299) 
1

>  <SR-HSE>  (299) 
1

$$$$
NCGC00257342-01
     RDKit          2D

 43 46  0  0  1  0  0  0  0  0999 V2000
    2.1434   -3.7009    0.0000 C   0  0  0  0  0  0  0  0  0  0  0  0
    2.1434   -4.5259    0.0000 C   0  0  0  0  0  0  0  0  0  0  0  0
    1.3262   -4.5336    0.0000 C   0  0  0  0  0  0  0  0  0  0  0  0
    1.4264   -3.2923    0.0000 O   0  0  0  0  0  0  0  0  0  0  0  0
    2.8605   -3.2923    0.0000 N   0  0  0  0  0  0  0  0  0  0  0  0
    1.4264   -6.5922    0.0000 C   0  0  0  0  0  0  0  0  0  0  0  0
    2.1434   -6.9932    0.0000 C   0  0  0  0  0  0  0  0  0  0  0  0
    2.8605   -6.5922    0.0000 C   0  0  0  0  0  0  0  0  0  0  0  0
    2.8605   -5.7672    0.0000 C   0  0  0  0  0  0  0  0  0  0  0  0
    2.1434   -5.3509    0.0000 C   0  0  0  0  0  0  0  0  0  0  0  0
    1.4264   -5.7672    0.0000 C   0  0  0  0  0  0  0  0  0  0  0  0
    0.7171   -6.9932    0.0000 C   0  0  0  0  0  0  0  0  0  0  0  0
    1.1334   -7.7102    0.0000 F   0  0  0  0  0  0  0  0  0  0  0  0
    0.3084   -6.2838    0.0000 F   0  0  0  0  0  0  0  0  0  0  0  0
    0.0000   -7.4095    0.0000 F   0  0  0  0  0  0  0  0  0  0  0  0
    3.5698   -6.9932    0.0000 C   0  0  0  0  0  0  0  0  0  0  0  0
    3.9785   -6.2838    0.0000 F   0  0  0  0  0  0  0  0  0  0  0  0
    3.1535   -7.7102    0.0000 F   0  0  0  0  0  0  0  0  0  0  0  0
    4.2869   -7.4095    0.0000 F   0  0  0  0  0  0  0  0  0  0  0  0
    4.2869   -4.9422    0.0000 N   0  0  0  0  0  0  0  0  0  0  0  0
    5.0040   -4.5259    0.0000 C   0  0  0  0  0  0  0  0  0  0  0  0
    3.5698   -4.5259    0.0000 C   0  0  0  0  0  0  0  0  0  0  0  0
    3.5698   -3.7009    0.0000 C   0  0  0  0  0  0  0  0  0  0  0  0
    5.0040   -3.7009    0.0000 C   0  0  0  0  0  0  0  0  0  0  0  0
    4.2869   -3.2923    0.0000 C   0  0  0  0  0  0  0  0  0  0  0  0
    5.0040   -1.2336    0.0000 C   0  0  0  0  0  0  0  0  0  0  0  0
    4.2869   -0.8250    0.0000 C   0  0  0  0  0  0  0  0  0  0  0  0
    3.5698   -1.2336    0.0000 C   0  0  0  0  0  0  0  0  0  0  0  0
    3.5698   -2.0509    0.0000 C   0  0  0  0  0  0  0  0  0  0  0  0
    4.2869   -2.4673    0.0000 C   0  0  0  0  0  0  0  0  0  0  0  0
    5.0040   -2.0509    0.0000 C   0  0  0  0  0  0  0  0  0  0  0  0
    4.2869    0.0000    0.0000 F   0  0  0  0  0  0  0  0  0  0  0  0
    5.7056   -2.4673    0.0000 C   0  0  0  0  0  0  0  0  0  0  0  0
    5.7056   -4.9422    0.0000 N   0  0  0  0  0  0  0  0  0  0  0  0
    5.7981   -5.7518    0.0000 C   0  0  0  0  0  0  0  0  0  0  0  0
    6.4612   -4.6030    0.0000 C   0  0  0  0  0  0  0  0  0  0  0  0
    6.5999   -5.9369    0.0000 C   0  0  0  0  0  0  0  0  0  0  0  0
    7.0163   -5.2198    0.0000 C   0  0  0  0  0  0  0  0  0  0  0  0
    6.9392   -6.6770    0.0000 O   0  0  0  0  0  0  0  0  0  0  0  0
    5.1813   -6.3147    0.0000 C   0  0  0  0  0  0  0  0  0  0  0  0
    5.3586   -7.1165    0.0000 O   0  0  0  0  0  0  0  0  0  0  0  0
    2.8605   -2.4673    0.0000 C   0  0  0  0  0  0  0  0  0  0  0  0
    2.7988   -4.5259    0.0000 C   0  0  0  0  0  0  0  0  0  0  0  0
  1  2  1  0
  1  5  1  0
  1  4  2  0
  2  3  1  0
  2 10  1  0
  2 43  1  0
  5 23  1  0
  5 42  1  0
  6 11  2  0
  6  7  1  0
  6 12  1  0
  7  8  2  0
  8  9  1  0
  8 16  1  0
  9 10  2  0
 10 11  1  0
 12 13  1  0
 12 14  1  0
 12 15  1  0
 16 17  1  0
 16 18  1  0
 16 19  1  0
 20 21  2  0
 20 22  1  0
 21 24  1  0
 21 34  1  0
 22 23  2  0
 23 25  1  0
 24 25  2  0
 25 30  1  0
 26 31  2  0
 26 27  1  0
 27 28  2  0
 27 32  1  0
 28 29  1  0
 29 30  2  0
 30 31  1  0
 31 33  1  0
 34 35  1  0
 34 36  1  0
 35 37  1  0
 35 40  1  1
 36 38  1  0
 37 38  1  0
 37 39  1  1
 40 41  1  0
M  END
>  <Formula>  (300) 
C30H30F7N3O3

>  <FW>  (300) 
613.5663

>  <DSSTox_CID>  (300) 
28487

>  <NR-AR>  (300) 
0

>  <NR-AR-LBD>  (300) 
0

>  <NR-AhR>  (300) 
0

>  <SR-ARE>  (300) 
1

$$$$
NCGC00256402-01
     RDKit          2D

 34 36  0  0  0  0  0  0  0  0999 V2000
    5.0188   -3.4548    0.0000 C   0  0  0  0  0  0  0  0  0  0  0  0
    4.2969   -3.0594    0.0000 C   0  0  0  0  0  0  0  0  0  0  0  0
    5.0188   -4.2883    0.0000 C   0  0  0  0  0  0  0  0  0  0  0  0
    3.5836   -3.4548    0.0000 C   0  0  0  0  0  0  0  0  0  0  0  0
    5.7235   -3.0594    0.0000 C   0  0  0  0  0  0  0  0  0  0  0  0
    4.2969   -1.6500    0.0000 C   0  0  0  0  0  0  0  0  0  0  0  0
    3.5836   -4.2883    0.0000 C   0  0  0  0  0  0  0  0  0  0  0  0
    5.7235   -4.7095    0.0000 C   0  0  0  0  0  0  0  0  0  0  0  0
    4.2969   -4.7095    0.0000 O   0  0  0  0  0  0  0  0  0  0  0  0
    6.4454   -4.2883    0.0000 C   0  0  0  0  0  0  0  0  0  0  0  0
    6.4454   -3.4548    0.0000 C   0  0  0  0  0  0  0  0  0  0  0  0
    5.0188   -1.2375    0.0000 C   0  0  0  0  0  0  0  0  0  0  0  0
    2.8704   -3.0594    0.0000 C   0  0  0  0  0  0  0  0  0  0  0  0
    2.8704   -4.7095    0.0000 C   0  0  0  0  0  0  0  0  0  0  0  0
    7.1673   -4.7095    0.0000 N   0  0  0  0  0  0  0  0  0  0  0  0
    5.7321   -1.6500    0.0000 C   0  0  0  0  0  0  0  0  0  0  0  0
    2.1485   -4.2883    0.0000 C   0  0  0  0  0  0  0  0  0  0  0  0
    2.1485   -3.4548    0.0000 C   0  0  0  0  0  0  0  0  0  0  0  0
    5.7321   -2.4751    0.0000 O   0  0  0  0  0  0  0  0  0  0  0  0
    1.4266   -4.7095    0.0000 N   0  0  0  0  0  0  0  0  0  0  0  0
    6.4454   -1.2375    0.0000 O   0  0  0  0  0  0  0  0  0  0  0  0
    3.5751   -1.2375    0.0000 C   0  0  0  0  0  0  0  0  0  0  0  0
    7.8720   -4.2883    0.0000 C   0  0  0  0  0  0  0  0  0  0  0  0
    7.1673   -3.0594    0.0000 C   0  0  0  0  0  0  0  0  0  0  0  0
    5.0188   -0.4125    0.0000 C   0  0  0  0  0  0  0  0  0  0  0  0
    1.4266   -3.0594    0.0000 C   0  0  0  0  0  0  0  0  0  0  0  0
    0.7219   -4.2883    0.0000 C   0  0  0  0  0  0  0  0  0  0  0  0
    6.4454   -0.4125    0.0000 C   0  0  0  0  0  0  0  0  0  0  0  0
    8.5939   -4.6751    0.0000 C   0  0  0  0  0  0  0  0  0  0  0  0
    3.5751   -0.4125    0.0000 C   0  0  0  0  0  0  0  0  0  0  0  0
    4.2969    0.0000    0.0000 C   0  0  0  0  0  0  0  0  0  0  0  0
    0.0000   -4.6751    0.0000 C   0  0  0  0  0  0  0  0  0  0  0  0
    7.1587    0.0000    0.0000 C   0  0  0  0  0  0  0  0  0  0  0  0
    4.3141   -5.3368    0.0000 Cl  0  0  0  0  0  0  0  0  0  0  0  0
  1  2  2  0
  1  3  1  0
  1  5  1  0
  2  4  1  0
  2  6  1  0
  3  8  2  0
  3  9  1  0
  4 13  2  0
  4  7  1  0
  5 11  2  0
  6 12  2  0
  6 22  1  0
  7  9  1  0
  7 14  2  0
  8 10  1  0
 10 11  1  0
 10 15  2  0
 11 24  1  0
 12 16  1  0
 12 25  1  0
 13 18  1  0
 14 17  1  0
 15 23  1  0
 16 19  2  0
 16 21  1  0
 17 20  1  0
 17 18  2  0
 18 26  1  0
 20 27  1  0
 21 28  1  0
 22 30  2  0
 23 29  1  0
 25 31  2  0
 27 32  1  0
 28 33  1  0
 30 31  1  0
M  END
>  <Formula>  (301) 
C28H31ClN2O3

>  <FW>  (301) 
479.0103 (442.5494+36.4609)

>  <DSSTox_CID>  (301) 
1243

>  <NR-Aromatase>  (301) 
1

>  <NR-AR>  (301) 
0

>  <SR-ARE>  (301) 
1

>  <SR-ATAD5>  (301) 
0

>  <SR-HSE>  (301) 
1

$$$$
NCGC00259146-01
     RDKit          2D

 34 36  0  0  0  0  0  0  0  0999 V2000
    5.0188   -3.4548    0.0000 C   0  0  0  0  0  0  0  0  0  0  0  0
    4.2969   -3.0594    0.0000 C   0  0  0  0  0  0  0  0  0  0  0  0
    5.0188   -4.2883    0.0000 C   0  0  0  0  0  0  0  0  0  0  0  0
    3.5836   -3.4548    0.0000 C   0  0  0  0  0  0  0  0  0  0  0  0
    5.7235   -3.0594    0.0000 C   0  0  0  0  0  0  0  0  0  0  0  0
    4.2969   -1.6500    0.0000 C   0  0  0  0  0  0  0  0  0  0  0  0
    3.5836   -4.2883    0.0000 C   0  0  0  0  0  0  0  0  0  0  0  0
    5.7235   -4.7095    0.0000 C   0  0  0  0  0  0  0  0  0  0  0  0
    4.2969   -4.7095    0.0000 O   0  0  0  0  0  0  0  0  0  0  0  0
    6.4454   -4.2883    0.0000 C   0  0  0  0  0  0  0  0  0  0  0  0
    6.4454   -3.4548    0.0000 C   0  0  0  0  0  0  0  0  0  0  0  0
    5.0188   -1.2375    0.0000 C   0  0  0  0  0  0  0  0  0  0  0  0
    2.8704   -3.0594    0.0000 C   0  0  0  0  0  0  0  0  0  0  0  0
    2.8704   -4.7095    0.0000 C   0  0  0  0  0  0  0  0  0  0  0  0
    7.1673   -4.7095    0.0000 N   0  0  0  0  0  0  0  0  0  0  0  0
    5.7321   -1.6500    0.0000 C   0  0  0  0  0  0  0  0  0  0  0  0
    2.1485   -4.2883    0.0000 C   0  0  0  0  0  0  0  0  0  0  0  0
    2.1485   -3.4548    0.0000 C   0  0  0  0  0  0  0  0  0  0  0  0
    5.7321   -2.4751    0.0000 O   0  0  0  0  0  0  0  0  0  0  0  0
    1.4266   -4.7095    0.0000 N   0  0  0  0  0  0  0  0  0  0  0  0
    6.4454   -1.2375    0.0000 O   0  0  0  0  0  0  0  0  0  0  0  0
    3.5751   -1.2375    0.0000 C   0  0  0  0  0  0  0  0  0  0  0  0
    7.8720   -4.2883    0.0000 C   0  0  0  0  0  0  0  0  0  0  0  0
    7.1673   -3.0594    0.0000 C   0  0  0  0  0  0  0  0  0  0  0  0
    5.0188   -0.4125    0.0000 C   0  0  0  0  0  0  0  0  0  0  0  0
    1.4266   -3.0594    0.0000 C   0  0  0  0  0  0  0  0  0  0  0  0
    0.7219   -4.2883    0.0000 C   0  0  0  0  0  0  0  0  0  0  0  0
    6.4454   -0.4125    0.0000 C   0  0  0  0  0  0  0  0  0  0  0  0
    8.5939   -4.6751    0.0000 C   0  0  0  0  0  0  0  0  0  0  0  0
    3.5751   -0.4125    0.0000 C   0  0  0  0  0  0  0  0  0  0  0  0
    4.2969    0.0000    0.0000 C   0  0  0  0  0  0  0  0  0  0  0  0
    0.0000   -4.6751    0.0000 C   0  0  0  0  0  0  0  0  0  0  0  0
    7.1587    0.0000    0.0000 C   0  0  0  0  0  0  0  0  0  0  0  0
    4.3141   -5.3368    0.0000 Cl  0  0  0  0  0  0  0  0  0  0  0  0
  1  2  2  0
  1  3  1  0
  1  5  1  0
  2  4  1  0
  2  6  1  0
  3  8  2  0
  3  9  1  0
  4 13  2  0
  4  7  1  0
  5 11  2  0
  6 12  2  0
  6 22  1  0
  7  9  1  0
  7 14  2  0
  8 10  1  0
 10 11  1  0
 10 15  2  0
 11 24  1  0
 12 16  1  0
 12 25  1  0
 13 18  1  0
 14 17  1  0
 15 23  1  0
 16 19  2  0
 16 21  1  0
 17 20  1  0
 17 18  2  0
 18 26  1  0
 20 27  1  0
 21 28  1  0
 22 30  2  0
 23 29  1  0
 25 31  2  0
 27 32  1  0
 28 33  1  0
 30 31  1  0
M  END
>  <Formula>  (302) 
C28H31ClN2O3

>  <FW>  (302) 
479.0103 (442.5494+36.4609)

>  <DSSTox_CID>  (302) 
1243

>  <NR-Aromatase>  (302) 
1

>  <NR-AR>  (302) 
0

>  <NR-ER-LBD>  (302) 
0

>  <SR-ARE>  (302) 
1

>  <SR-p53>  (302) 
1

$$$$
NCGC00254603-01
     RDKit          2D

 29 33  0  0  1  0  0  0  0  0999 V2000
    4.9523   -2.7041    0.0000 C   0  0  0  0  0  0  0  0  0  0  0  0
    4.2449   -3.9304    0.0000 C   0  0  0  0  0  0  0  0  0  0  0  0
    3.5374   -3.5059    0.0000 C   0  0  0  0  0  0  0  0  0  0  0  0
    4.9523   -3.5059    0.0000 C   0  0  0  0  0  0  0  0  0  0  0  0
    5.6598   -2.2797    0.0000 C   0  0  0  0  0  0  0  0  0  0  0  0
    2.8378   -3.9304    0.0000 C   0  0  0  0  0  0  0  0  0  0  0  0
    4.2449   -2.2797    0.0000 O   0  0  0  0  0  0  0  0  0  0  0  0
    3.5374   -2.7041    0.0000 C   0  0  0  0  0  0  0  0  0  0  0  0
    2.1303   -3.5059    0.0000 C   0  0  0  0  0  0  0  0  0  0  0  0
    6.9648   -2.1382    0.0000 O   0  0  0  0  0  0  0  0  0  0  0  0
    6.3674   -2.7041    0.0000 C   0  0  0  0  0  0  0  0  0  0  0  0
    5.8407   -1.4857    0.0000 C   0  0  0  0  0  0  0  0  0  0  0  0
    6.6503   -1.4071    0.0000 C   0  0  0  0  0  0  0  0  0  0  0  0
    2.8378   -4.7323    0.0000 C   0  0  0  0  0  0  0  0  0  0  0  0
    2.1303   -2.7041    0.0000 O   0  0  0  0  0  0  0  0  0  0  0  0
    1.4228   -3.9304    0.0000 C   0  0  0  0  0  0  0  0  0  0  0  0
    5.6598   -3.9304    0.0000 C   0  0  0  0  0  0  0  0  0  0  0  0
    2.1303   -5.1568    0.0000 C   0  0  0  0  0  0  0  0  0  0  0  0
    1.4228   -4.7323    0.0000 C   0  0  0  0  0  0  0  0  0  0  0  0
    7.0669   -0.7154    0.0000 C   0  0  0  0  0  0  0  0  0  0  0  0
    2.8378   -2.2797    0.0000 C   0  0  0  0  0  0  0  0  0  0  0  0
    4.2449   -4.7323    0.0000 O   0  0  0  0  0  0  0  0  0  0  0  0
    6.3674   -3.5059    0.0000 C   0  0  0  0  0  0  0  0  0  0  0  0
    6.6424    0.0000    0.0000 C   0  0  0  0  0  0  0  0  0  0  0  0
    2.1303   -5.9664    0.0000 O   0  0  0  0  0  0  0  0  0  0  0  0
    0.7075   -5.1646    0.0000 O   0  0  0  0  0  0  0  0  0  0  0  0
    7.8609   -0.7075    0.0000 C   0  0  0  0  0  0  0  0  0  0  0  0
    0.0000   -4.7401    0.0000 C   0  0  0  0  0  0  0  0  0  0  0  0
    1.4228   -6.3752    0.0000 C   0  0  0  0  0  0  0  0  0  0  0  0
  1  4  2  0
  1  5  1  0
  1  7  1  0
  2  4  1  0
  2 22  2  0
  3  2  1  1
  3  8  1  0
  3  6  1  0
  4 17  1  0
  5 11  2  0
  5 12  1  0
  6 14  2  0
  6  9  1  0
  7  8  1  0
  8 21  1  1
  9 15  1  0
  9 16  2  0
 10 11  1  0
 10 13  1  0
 11 23  1  0
 12 13  1  0
 13 20  1  6
 14 18  1  0
 15 21  1  0
 16 19  1  0
 17 23  2  0
 18 25  1  0
 18 19  2  0
 19 26  1  0
 20 24  2  0
 20 27  1  0
 25 29  1  0
 26 28  1  0
M  END
>  <Formula>  (303) 
C23H22O6

>  <FW>  (303) 
394.4172

>  <DSSTox_CID>  (303) 
1248

>  <NR-AR>  (303) 
0

>  <NR-AhR>  (303) 
0

>  <SR-ARE>  (303) 
1

>  <SR-ATAD5>  (303) 
0

>  <SR-p53>  (303) 
1

$$$$
NCGC00255171-01
     RDKit          2D

 27 30  0  0  0  0  0  0  0  0999 V2000
    3.1946   -2.8579    0.0000 C   0  0  0  0  0  0  0  0  0  0  0  0
    2.4838   -2.4390    0.0000 C   0  0  0  0  0  0  0  0  0  0  0  0
    2.5362   -1.6309    0.0000 C   0  0  0  0  0  0  0  0  0  0  0  0
    1.9527   -1.0474    0.0000 C   0  0  0  0  0  0  0  0  0  0  0  0
    1.1222   -1.1821    0.0000 C   0  0  0  0  0  0  0  0  0  0  0  0
    0.7107   -1.8928    0.0000 C   0  0  0  0  0  0  0  0  0  0  0  0
    1.0025   -2.6559    0.0000 C   0  0  0  0  0  0  0  0  0  0  0  0
    1.8030   -2.9028    0.0000 C   0  0  0  0  0  0  0  0  0  0  0  0
    1.9751   -3.6958    0.0000 C   0  0  0  0  0  0  0  0  0  0  0  0
    1.3916   -4.2793    0.0000 C   0  0  0  0  0  0  0  0  0  0  0  0
    0.5835   -4.0175    0.0000 C   0  0  0  0  0  0  0  0  0  0  0  0
    0.0000   -4.6011    0.0000 Cl  0  0  0  0  0  0  0  0  0  0  0  0
    0.4190   -3.2319    0.0000 C   0  0  0  0  0  0  0  0  0  0  0  0
    2.1247   -0.2544    0.0000 C   0  0  0  0  0  0  0  0  0  0  0  0
    2.9252    0.0000    0.0000 C   0  0  0  0  0  0  0  0  0  0  0  0
    3.5088   -0.5835    0.0000 C   0  0  0  0  0  0  0  0  0  0  0  0
    3.3293   -1.3766    0.0000 N   0  0  0  0  0  0  0  0  0  0  0  0
    3.9128   -2.4390    0.0000 C   0  0  0  0  0  0  0  0  0  0  0  0
    4.6235   -2.8579    0.0000 C   0  0  0  0  0  0  0  0  0  0  0  0
    4.6235   -3.6809    0.0000 N   0  0  0  0  0  0  0  0  0  0  0  0
    5.3417   -4.0924    0.0000 C   0  0  0  0  0  0  0  0  0  0  0  0
    5.3417   -4.9153    0.0000 O   0  0  0  0  0  0  0  0  0  0  0  0
    6.0525   -3.6809    0.0000 O   0  0  0  0  0  0  0  0  0  0  0  0
    6.7707   -4.0924    0.0000 C   0  0  0  0  0  0  0  0  0  0  0  0
    7.4814   -3.6809    0.0000 C   0  0  0  0  0  0  0  0  0  0  0  0
    3.9128   -4.0924    0.0000 C   0  0  0  0  0  0  0  0  0  0  0  0
    3.1946   -3.6809    0.0000 C   0  0  0  0  0  0  0  0  0  0  0  0
  1  2  2  0
  1 18  1  0
  1 27  1  0
  2  3  1  0
  2  8  1  0
  3  4  2  0
  3 17  1  0
  4  5  1  0
  4 14  1  0
  5  6  1  0
  6  7  1  0
  7  8  2  0
  7 13  1  0
  8  9  1  0
  9 10  2  0
 10 11  1  0
 11 12  1  0
 11 13  2  0
 14 15  2  0
 15 16  1  0
 16 17  2  0
 18 19  1  0
 19 20  1  0
 20 21  1  0
 20 26  1  0
 21 22  2  0
 21 23  1  0
 23 24  1  0
 24 25  1  0
 26 27  1  0
M  END
>  <Formula>  (304) 
C22H23ClN2O2

>  <FW>  (304) 
382.8832

>  <DSSTox_CID>  (304) 
3224

>  <NR-AR>  (304) 
0

>  <NR-ER-LBD>  (304) 
0

>  <NR-AhR>  (304) 
0

>  <SR-ARE>  (304) 
1

>  <SR-p53>  (304) 
1

$$$$
NCGC00259096-01
     RDKit          2D

 29 31  0  0  1  0  0  0  0  0999 V2000
    3.5234   -2.5766    0.0000 C   0  0  0  0  0  0  0  0  0  0  0  0
    4.3281   -2.4008    0.0000 C   0  0  0  0  0  0  0  0  0  0  0  0
    2.8877   -2.0491    0.0000 C   0  0  0  0  0  0  0  0  0  0  0  0
    2.1776   -2.4616    0.0000 C   0  0  0  0  0  0  0  0  0  0  0  0
    4.9773   -2.8877    0.0000 C   0  0  0  0  0  0  0  0  0  0  0  0
    1.4472   -2.0491    0.0000 C   0  0  0  0  0  0  0  0  0  0  0  0
    3.1785   -3.3137    0.0000 C   0  0  0  0  0  0  0  0  0  0  0  0
    2.8877   -1.2240    0.0000 C   0  0  0  0  0  0  0  0  0  0  0  0
    4.9773   -3.7127    0.0000 C   0  0  0  0  0  0  0  0  0  0  0  0
    4.6730   -1.6501    0.0000 C   0  0  0  0  0  0  0  0  0  0  0  0
    1.4472   -1.2376    0.0000 C   0  0  0  0  0  0  0  0  0  0  0  0
    3.5234   -4.0508    0.0000 C   0  0  0  0  0  0  0  0  0  0  0  0
    4.3484   -4.2267    0.0000 C   0  0  0  0  0  0  0  0  0  0  0  0
    5.5251   -1.6501    0.0000 N   0  0  0  0  0  0  0  0  0  0  0  0
    2.1776   -0.8251    0.0000 C   0  0  0  0  0  0  0  0  0  0  0  0
    5.9241   -0.9400    0.0000 C   0  0  0  0  0  0  0  0  0  0  0  0
    3.5234   -0.7236    0.0000 C   0  0  0  0  0  0  0  0  0  0  0  0
    5.7280   -4.1117    0.0000 O   0  0  0  0  0  0  0  0  0  0  0  0
    4.3281   -0.9129    0.0000 C   0  0  0  0  0  0  0  0  0  0  0  0
    5.5116   -0.2097    0.0000 O   0  0  0  0  0  0  0  0  0  0  0  0
    2.1776   -3.2867    0.0000 O   0  0  0  0  0  0  0  0  0  0  0  0
    0.7101   -2.4481    0.0000 O   0  0  0  0  0  0  0  0  0  0  0  0
    0.7101   -0.8386    0.0000 O   0  0  0  0  0  0  0  0  0  0  0  0
    4.5648   -5.0247    0.0000 O   0  0  0  0  0  0  0  0  0  0  0  0
    6.7627   -0.9400    0.0000 C   0  0  0  0  0  0  0  0  0  0  0  0
    1.4405   -3.6992    0.0000 C   0  0  0  0  0  0  0  0  0  0  0  0
    0.0000   -2.0017    0.0000 C   0  0  0  0  0  0  0  0  0  0  0  0
    0.7101    0.0000    0.0000 C   0  0  0  0  0  0  0  0  0  0  0  0
    5.3155   -5.0247    0.0000 C   0  0  0  0  0  0  0  0  0  0  0  0
  1  2  1  0
  1  3  1  0
  1  7  2  0
  2  5  2  0
  2 10  1  0
  3  4  2  0
  3  8  1  0
  4  6  1  0
  4 21  1  0
  5  9  1  0
  6 22  1  0
  6 11  2  0
  7 12  1  0
  8 15  2  0
  8 17  1  0
  9 18  2  0
  9 13  1  0
 10 14  1  6
 10 19  1  0
 11 15  1  0
 11 23  1  0
 12 13  2  0
 13 24  1  0
 14 16  1  0
 16 20  2  0
 16 25  1  0
 17 19  1  0
 21 26  1  0
 22 27  1  0
 23 28  1  0
 24 29  1  0
M  END
>  <Formula>  (305) 
C22H25NO6

>  <FW>  (305) 
399.4370

>  <DSSTox_CID>  (305) 
4845

>  <NR-AR>  (305) 
0

>  <SR-ARE>  (305) 
1

>  <SR-ATAD5>  (305) 
1

>  <SR-p53>  (305) 
0

$$$$
NCGC00183008-01
     RDKit          2D

 34 38  0  0  0  0  0  0  0  0999 V2000
    7.3034   -1.2660    0.0000 N   0  0  0  0  0  0  0  0  0  0  0  0
    8.1254   -1.2660    0.0000 C   0  0  0  0  0  0  0  0  0  0  0  0
    8.6451   -1.9085    0.0000 C   0  0  0  0  0  0  0  0  0  0  0  0
    8.4561   -2.7211    0.0000 N   0  0  0  0  0  0  0  0  0  0  0  0
    7.7097   -3.0801    0.0000 C   0  0  0  0  0  0  0  0  0  0  0  0
    6.9728   -2.7211    0.0000 C   0  0  0  0  0  0  0  0  0  0  0  0
    6.7838   -1.9085    0.0000 C   0  0  0  0  0  0  0  0  0  0  0  0
    7.7097    0.0000    0.0000 N   0  0  0  0  0  0  0  0  0  0  0  0
    8.3805   -0.4819    0.0000 N   0  0  0  0  0  0  0  0  0  0  0  0
    7.0483   -0.4819    0.0000 C   0  0  0  0  0  0  0  0  0  0  0  0
    5.9618   -1.8424    0.0000 S   0  0  0  0  0  0  0  0  0  0  0  0
    5.6406   -2.5982    0.0000 C   0  0  0  0  0  0  0  0  0  0  0  0
    6.2642   -3.1462    0.0000 C   0  0  0  0  0  0  0  0  0  0  0  0
    7.7097   -3.9021    0.0000 C   0  0  0  0  0  0  0  0  0  0  0  0
    8.4278   -4.3178    0.0000 C   0  0  0  0  0  0  0  0  0  0  0  0
    7.0011   -4.3178    0.0000 C   0  0  0  0  0  0  0  0  0  0  0  0
    8.4278   -5.1398    0.0000 C   0  0  0  0  0  0  0  0  0  0  0  0
    7.0011   -5.1398    0.0000 C   0  0  0  0  0  0  0  0  0  0  0  0
    7.7097   -5.5555    0.0000 C   0  0  0  0  0  0  0  0  0  0  0  0
    9.1458   -3.9021    0.0000 Cl  0  0  0  0  0  0  0  0  0  0  0  0
    4.8374   -2.7778    0.0000 C   0  0  0  0  0  0  0  0  0  0  0  0
    4.5918   -3.5714    0.0000 C   0  0  0  0  0  0  0  0  0  0  0  0
    3.7793   -3.7604    0.0000 C   0  0  0  0  0  0  0  0  0  0  0  0
    3.5431   -4.5446    0.0000 C   0  0  0  0  0  0  0  0  0  0  0  0
    3.2218   -3.1462    0.0000 C   0  0  0  0  0  0  0  0  0  0  0  0
    2.7305   -4.7335    0.0000 C   0  0  0  0  0  0  0  0  0  0  0  0
    2.4188   -3.3352    0.0000 C   0  0  0  0  0  0  0  0  0  0  0  0
    2.1731   -4.1194    0.0000 C   0  0  0  0  0  0  0  0  0  0  0  0
    1.3700   -4.3084    0.0000 C   0  0  0  0  0  0  0  0  0  0  0  0
    0.8031   -3.7037    0.0000 C   0  0  0  0  0  0  0  0  0  0  0  0
    1.0487   -2.9101    0.0000 C   0  0  0  0  0  0  0  0  0  0  0  0
    0.0000   -3.8832    0.0000 C   0  0  0  0  0  0  0  0  0  0  0  0
    9.4482   -1.7290    0.0000 C   0  0  0  0  0  0  0  0  0  0  0  0
    6.2642   -0.2267    0.0000 C   0  0  0  0  0  0  0  0  0  0  0  0
  1  2  1  0
  1  7  1  0
  1 10  1  0
  2  3  1  0
  2  9  2  0
  3  4  1  0
  3 33  1  0
  4  5  2  0
  5  6  1  0
  5 14  1  0
  6  7  2  0
  6 13  1  0
  7 11  1  0
  8  9  1  0
  8 10  2  0
 10 34  1  0
 11 12  1  0
 12 13  2  0
 12 21  1  0
 14 15  2  0
 14 16  1  0
 15 17  1  0
 15 20  1  0
 16 18  2  0
 17 19  2  0
 18 19  1  0
 21 22  1  0
 22 23  1  0
 23 24  2  0
 23 25  1  0
 24 26  1  0
 25 27  2  0
 26 28  2  0
 27 28  1  0
 28 29  1  0
 29 30  1  0
 30 31  1  0
 30 32  1  0
M  END
>  <Formula>  (306) 
C28H29ClN4S

>  <FW>  (306) 
489.0747

>  <DSSTox_CID>  (306) 
312

>  <NR-Aromatase>  (306) 
1

>  <NR-AR>  (306) 
0

>  <NR-ER-LBD>  (306) 
0

>  <NR-AhR>  (306) 
0

>  <SR-ARE>  (306) 
1

>  <SR-ATAD5>  (306) 
0

>  <SR-MMP>  (306) 
1

$$$$
NCGC00258312-01
     RDKit          2D

 61 66  0  0  1  0  0  0  0  0999 V2000
    4.2788   -3.7210    0.0000 C   0  0  0  0  0  0  0  0  0  0  0  0
    4.2788   -4.5489    0.0000 C   0  0  0  0  0  0  0  0  0  0  0  0
    3.5729   -3.3028    0.0000 C   0  0  0  0  0  0  0  0  0  0  0  0
    3.5729   -4.9585    0.0000 C   0  0  0  0  0  0  0  0  0  0  0  0
    2.8670   -3.7210    0.0000 C   0  0  0  0  0  0  0  0  0  0  0  0
    2.8670   -4.5489    0.0000 C   0  0  0  0  0  0  0  0  0  0  0  0
    5.0021   -3.3028    0.0000 C   0  0  0  0  0  0  0  0  0  0  0  0
    5.7167   -3.7210    0.0000 C   0  0  0  0  0  0  0  0  0  0  0  0
    5.0021   -4.9585    0.0000 C   0  0  0  0  0  0  0  0  0  0  0  0
    5.7167   -4.5489    0.0000 C   0  0  0  0  0  0  0  0  0  0  0  0
    5.1764   -5.7515    0.0000 N   0  0  0  0  0  0  0  0  0  0  0  0
    5.9955   -5.8473    0.0000 C   0  0  0  0  0  0  0  0  0  0  0  0
    6.3267   -5.0979    0.0000 N   0  0  0  0  0  0  0  0  0  0  0  0
    3.3986   -5.7515    0.0000 C   0  0  0  0  0  0  0  0  0  0  0  0
    2.5882   -5.8473    0.0000 C   0  0  0  0  0  0  0  0  0  0  0  0
    2.2483   -5.0979    0.0000 O   0  0  0  0  0  0  0  0  0  0  0  0
    6.8234   -5.8473    0.0000 C   0  0  0  0  0  0  0  0  0  0  0  0
    5.5772   -6.5706    0.0000 C   0  0  0  0  0  0  0  0  0  0  0  0
    7.2417   -6.5706    0.0000 C   0  0  0  0  0  0  0  0  0  0  0  0
    5.9955   -7.2852    0.0000 C   0  0  0  0  0  0  0  0  0  0  0  0
    6.8234   -7.2852    0.0000 N   0  0  0  0  0  0  0  0  0  0  0  0
    7.2417   -7.9911    0.0000 C   0  0  0  0  0  0  0  0  0  0  0  0
    8.0608   -7.9911    0.0000 C   0  0  0  0  0  0  0  0  0  0  0  0
    8.4704   -8.7144    0.0000 C   0  0  0  0  0  0  0  0  0  0  0  0
    8.4704   -7.2852    0.0000 C   0  0  0  0  0  0  0  0  0  0  0  0
    5.0021   -2.4836    0.0000 O   0  0  0  0  0  0  0  0  0  0  0  0
    5.7167   -2.0740    0.0000 O   0  0  0  0  0  0  0  0  0  0  0  0
    6.4400   -3.3028    0.0000 N   0  0  0  0  0  0  0  0  0  0  0  0
    6.4400   -2.4836    0.0000 C   0  0  0  0  0  0  0  0  0  0  0  0
    3.5729   -2.4836    0.0000 O   0  0  0  0  0  0  0  0  0  0  0  0
    4.2962   -2.0740    0.0000 O   0  0  0  0  0  0  0  0  0  0  0  0
    5.7167   -1.2549    0.0000 C   0  0  0  0  0  0  0  0  0  0  0  0
    6.4400   -0.8279    0.0000 C   0  0  0  0  0  0  0  0  0  0  0  0
    7.1458   -2.0740    0.0000 C   0  0  0  0  0  0  0  0  0  0  0  0
    7.1458   -1.2549    0.0000 C   0  0  0  0  0  0  0  0  0  0  0  0
    4.2962   -1.2375    0.0000 C   0  0  0  0  0  0  0  0  0  0  0  0
    5.0021   -0.8279    0.0000 C   0  0  0  0  0  0  0  0  0  0  0  0
    2.8670   -2.0740    0.0000 C   0  0  0  0  0  0  0  0  0  0  0  0
    2.8670   -1.2549    0.0000 C   0  0  0  0  0  0  0  0  0  0  0  0
    3.5729   -0.8279    0.0000 C   0  0  0  0  0  0  0  0  0  0  0  0
    2.1437   -2.4836    0.0000 C   0  0  0  0  0  0  0  0  0  0  0  0
    2.1437   -3.3028    0.0000 C   0  0  0  0  0  0  0  0  0  0  0  0
    1.4379   -3.7124    0.0000 C   0  0  0  0  0  0  0  0  0  0  0  0
    1.4379   -4.5402    0.0000 C   0  0  0  0  0  0  0  0  0  0  0  0
    2.1437   -0.8279    0.0000 O   0  0  0  0  0  0  0  0  0  0  0  0
    3.5729    0.0000    0.0000 C   0  0  0  0  0  0  0  0  0  0  0  0
    5.0021    0.0000    0.0000 C   0  0  0  0  0  0  0  0  0  0  0  0
    7.8691   -2.4836    0.0000 C   0  0  0  0  0  0  0  0  0  0  0  0
    1.7603   -5.8473    0.0000 O   0  0  0  0  0  0  0  0  0  0  0  0
    2.5882   -6.6839    0.0000 C   0  0  0  0  0  0  0  0  0  0  0  0
    1.1852   -5.2722    0.0000 C   0  0  0  0  0  0  0  0  0  0  0  0
    0.7233   -3.3028    0.0000 O   0  0  0  0  0  0  0  0  0  0  0  0
    0.0000   -3.7124    0.0000 C   0  0  0  0  0  0  0  0  0  0  0  0
    1.4379   -2.0653    0.0000 O   0  0  0  0  0  0  0  0  0  0  0  0
    2.2047   -4.1655    0.0000 C   0  0  0  0  0  0  0  0  0  0  0  0
    2.8670   -2.9019    0.0000 C   0  0  0  0  0  0  0  0  0  0  0  0
    3.9563   -6.3789    0.0000 O   0  0  0  0  0  0  0  0  0  0  0  0
    3.4596   -1.6383    0.0000 C   0  0  0  0  0  0  0  0  0  0  0  0
    0.6013   -2.0653    0.0000 C   0  0  0  0  0  0  0  0  0  0  0  0
    0.2004   -1.3507    0.0000 C   0  0  0  0  0  0  0  0  0  0  0  0
    0.1830   -2.7711    0.0000 O   0  0  0  0  0  0  0  0  0  0  0  0
  1  2  1  0
  1  3  2  0
  1  7  1  0
  2  4  2  0
  2  9  1  0
  3 30  1  0
  3  5  1  0
  4 14  1  0
  4  6  1  0
  5  6  2  0
  5 56  1  0
  6 16  1  0
  7  8  1  0
  7 26  2  0
  8 10  2  0
  8 28  1  0
  9 11  2  0
  9 10  1  0
 10 13  1  0
 11 12  1  0
 12 13  1  0
 12 17  1  0
 12 18  1  0
 14 15  1  0
 14 57  2  0
 15 16  1  0
 15 49  1  0
 15 50  1  6
 17 19  1  0
 18 20  1  0
 19 21  1  0
 20 21  1  0
 21 22  1  0
 22 23  1  0
 23 24  1  0
 23 25  1  0
 27 29  2  0
 28 29  1  0
 29 34  1  0
 36 31  1  6
 32 33  2  0
 32 37  1  0
 33 35  1  0
 34 35  2  0
 34 48  1  0
 36 37  1  0
 36 40  1  0
 37 47  1  1
 38 39  1  0
 38 41  1  0
 38 58  1  1
 39 40  1  0
 39 45  1  6
 40 46  1  6
 41 42  1  0
 41 54  1  1
 42 43  1  0
 42 55  1  6
 43 44  1  0
 43 52  1  6
 44 51  2  0
 49 51  1  0
 52 53  1  0
 54 59  1  0
 59 60  1  0
 59 61  2  0
M  END
>  <Formula>  (307) 
C46H62N4O11

>  <FW>  (307) 
847.0047

>  <DSSTox_CID>  (307) 
10773

>  <NR-ER-LBD>  (307) 
0

>  <SR-ARE>  (307) 
1

>  <SR-ATAD5>  (307) 
0

>  <SR-HSE>  (307) 
0

>  <SR-p53>  (307) 
0

$$$$
NCGC00255042-01
     RDKit          2D

 28 31  0  0  0  0  0  0  0  0999 V2000
    1.3394   -2.0777    0.0000 N   0  0  0  0  0  0  0  0  0  0  0  0
    1.3394   -1.2634    0.0000 C   0  0  0  0  0  0  0  0  0  0  0  0
    2.1386   -2.3365    0.0000 C   0  0  0  0  0  0  0  0  0  0  0  0
    2.1386   -1.0046    0.0000 O   0  0  0  0  0  0  0  0  0  0  0  0
    2.6104   -1.6591    0.0000 C   0  0  0  0  0  0  0  0  0  0  0  0
    0.6773   -0.7763    0.0000 O   0  0  0  0  0  0  0  0  0  0  0  0
    2.3821   -3.1128    0.0000 O   0  0  0  0  0  0  0  0  0  0  0  0
    3.3259   -2.0777    0.0000 C   0  0  0  0  0  0  0  0  0  0  0  0
    3.3259   -1.2558    0.0000 C   0  0  0  0  0  0  0  0  0  0  0  0
    3.3259   -0.4186    0.0000 C   0  0  0  0  0  0  0  0  0  0  0  0
    4.0336   -1.6515    0.0000 C   0  0  0  0  0  0  0  0  0  0  0  0
    4.0260   -0.0152    0.0000 C   0  0  0  0  0  0  0  0  0  0  0  0
    4.7490   -1.2482    0.0000 C   0  0  0  0  0  0  0  0  0  0  0  0
    4.7490   -0.4186    0.0000 C   0  0  0  0  0  0  0  0  0  0  0  0
    5.4568   -0.0152    0.0000 O   0  0  0  0  0  0  0  0  0  0  0  0
    6.1798   -0.4186    0.0000 C   0  0  0  0  0  0  0  0  0  0  0  0
    6.8876    0.0000    0.0000 C   0  0  0  0  0  0  0  0  0  0  0  0
    6.1798   -1.2482    0.0000 C   0  0  0  0  0  0  0  0  0  0  0  0
    7.6030   -0.4110    0.0000 C   0  0  0  0  0  0  0  0  0  0  0  0
    6.8952   -1.6515    0.0000 C   0  0  0  0  0  0  0  0  0  0  0  0
    7.6106   -1.2329    0.0000 C   0  0  0  0  0  0  0  0  0  0  0  0
    0.7154   -2.5648    0.0000 N   0  0  0  0  0  0  0  0  0  0  0  0
    0.7154   -3.3791    0.0000 C   0  0  0  0  0  0  0  0  0  0  0  0
    1.4308   -3.7977    0.0000 C   0  0  0  0  0  0  0  0  0  0  0  0
    0.0000   -3.7977    0.0000 C   0  0  0  0  0  0  0  0  0  0  0  0
    1.4308   -4.6197    0.0000 C   0  0  0  0  0  0  0  0  0  0  0  0
    0.0000   -4.6197    0.0000 C   0  0  0  0  0  0  0  0  0  0  0  0
    0.7154   -5.0306    0.0000 C   0  0  0  0  0  0  0  0  0  0  0  0
  1  2  1  0
  1  3  1  0
  1 22  1  0
  2  4  1  0
  2  6  2  0
  3  5  1  0
  3  7  2  0
  4  5  1  0
  5  8  1  0
  5  9  1  0
  9 10  2  0
  9 11  1  0
 10 12  1  0
 11 13  2  0
 12 14  2  0
 13 14  1  0
 14 15  1  0
 15 16  1  0
 16 17  2  0
 16 18  1  0
 17 19  1  0
 18 20  2  0
 19 21  2  0
 20 21  1  0
 22 23  1  0
 23 24  2  0
 23 25  1  0
 24 26  1  0
 25 27  2  0
 26 28  2  0
 27 28  1  0
M  END
>  <Formula>  (308) 
C22H18N2O4

>  <FW>  (308) 
374.3893

>  <DSSTox_CID>  (308) 
14588

>  <NR-AR>  (308) 
0

>  <NR-AR-LBD>  (308) 
0

>  <NR-AhR>  (308) 
0

>  <SR-ARE>  (308) 
1

>  <SR-ATAD5>  (308) 
0

>  <SR-MMP>  (308) 
1

$$$$
NCGC00254744-01
     RDKit          2D

 62 68  0  0  1  0  0  0  0  0999 V2000
    8.8767   -8.0435    0.0000 C   0  0  0  0  0  0  0  0  0  0  0  0
    8.8767   -8.8932    0.0000 C   0  0  0  0  0  0  0  0  0  0  0  0
    9.5944   -7.6310    0.0000 C   0  0  0  0  0  0  0  0  0  0  0  0
    8.1425   -7.6393    0.0000 C   0  0  0  0  0  0  0  0  0  0  0  0
    8.8685   -7.2103    0.0000 O   0  0  0  0  0  0  0  0  0  0  0  0
    7.4330   -8.8932    0.0000 O   0  0  0  0  0  0  0  0  0  0  0  0
    9.5779   -9.2892    0.0000 C   0  0  0  0  0  0  0  0  0  0  0  0
    9.5944   -6.8225    0.0000 C   0  0  0  0  0  0  0  0  0  0  0  0
   10.3039   -8.0435    0.0000 C   0  0  0  0  0  0  0  0  0  0  0  0
    7.4330   -8.0435    0.0000 C   0  0  0  0  0  0  0  0  0  0  0  0
    8.1425   -6.8225    0.0000 C   0  0  0  0  0  0  0  0  0  0  0  0
   10.3039   -8.8932    0.0000 C   0  0  0  0  0  0  0  0  0  0  0  0
    9.5779  -10.1224    0.0000 O   0  0  0  0  0  0  0  0  0  0  0  0
   10.3122   -6.4018    0.0000 O   0  0  0  0  0  0  0  0  0  0  0  0
    8.8932   -6.3853    0.0000 O   0  0  0  0  0  0  0  0  0  0  0  0
    7.4578   -6.4018    0.0000 C   0  0  0  0  0  0  0  0  0  0  0  0
   11.0299   -9.2892    0.0000 C   0  0  0  0  0  0  0  0  0  0  0  0
   10.3287   -5.5768    0.0000 C   0  0  0  0  0  0  0  0  0  0  0  0
    7.4578   -5.5768    0.0000 C   0  0  0  0  0  0  0  0  0  0  0  0
   11.0794   -5.1726    0.0000 C   0  0  0  0  0  0  0  0  0  0  0  0
    9.6357   -5.1314    0.0000 C   0  0  0  0  0  0  0  0  0  0  0  0
    6.7483   -5.1561    0.0000 C   0  0  0  0  0  0  0  0  0  0  0  0
   11.0794   -4.3641    0.0000 C   0  0  0  0  0  0  0  0  0  0  0  0
    9.6357   -4.3228    0.0000 C   0  0  0  0  0  0  0  0  0  0  0  0
    6.7483   -4.3393    0.0000 C   0  0  0  0  0  0  0  0  0  0  0  0
    6.0388   -5.5768    0.0000 C   0  0  0  0  0  0  0  0  0  0  0  0
   10.3699   -3.9434    0.0000 O   0  0  0  0  0  0  0  0  0  0  0  0
   11.7806   -4.7683    0.0000 O   0  0  0  0  0  0  0  0  0  0  0  0
   11.0794   -3.5309    0.0000 C   0  0  0  0  0  0  0  0  0  0  0  0
    8.9345   -3.8939    0.0000 C   0  0  0  0  0  0  0  0  0  0  0  0
    6.0470   -3.8362    0.0000 O   0  0  0  0  0  0  0  0  0  0  0  0
    7.4743   -3.9434    0.0000 C   0  0  0  0  0  0  0  0  0  0  0  0
   12.5066   -4.3641    0.0000 C   0  0  0  0  0  0  0  0  0  0  0  0
   11.7806   -3.1101    0.0000 C   0  0  0  0  0  0  0  0  0  0  0  0
    8.1672   -4.3641    0.0000 C   0  0  0  0  0  0  0  0  0  0  0  0
    5.1808   -3.8362    0.0000 C   0  0  0  0  0  0  0  0  0  0  0  0
    7.4743   -3.1101    0.0000 C   0  0  0  0  0  0  0  0  0  0  0  0
   12.5066   -3.5309    0.0000 C   0  0  0  0  0  0  0  0  0  0  0  0
   13.2326   -4.7683    0.0000 C   0  0  0  0  0  0  0  0  0  0  0  0
    5.1808   -2.9287    0.0000 C   0  0  0  0  0  0  0  0  0  0  0  0
    4.4714   -4.1743    0.0000 O   0  0  0  0  0  0  0  0  0  0  0  0
   13.2326   -3.1101    0.0000 C   0  0  0  0  0  0  0  0  0  0  0  0
   13.2326   -5.5933    0.0000 C   0  0  0  0  0  0  0  0  0  0  0  0
   13.9421   -4.3641    0.0000 C   0  0  0  0  0  0  0  0  0  0  0  0
    4.4714   -2.5079    0.0000 C   0  0  0  0  0  0  0  0  0  0  0  0
    3.7619   -3.7537    0.0000 C   0  0  0  0  0  0  0  0  0  0  0  0
   12.5066   -6.0141    0.0000 C   0  0  0  0  0  0  0  0  0  0  0  0
    3.7619   -2.9287    0.0000 C   0  0  0  0  0  0  0  0  0  0  0  0
    4.4714   -1.6747    0.0000 O   0  0  0  0  0  0  0  0  0  0  0  0
    3.0359   -4.1743    0.0000 C   0  0  0  0  0  0  0  0  0  0  0  0
    3.0359   -2.5079    0.0000 O   0  0  0  0  0  0  0  0  0  0  0  0
    5.1808   -1.2540    0.0000 C   0  0  0  0  0  0  0  0  0  0  0  0
    2.1284   -2.4997    0.0000 C   0  0  0  0  0  0  0  0  0  0  0  0
    2.1284   -1.6582    0.0000 C   0  0  0  0  0  0  0  0  0  0  0  0
    1.4189   -2.9122    0.0000 O   0  0  0  0  0  0  0  0  0  0  0  0
    1.4189   -1.2457    0.0000 C   0  0  0  0  0  0  0  0  0  0  0  0
    0.6930   -2.4997    0.0000 C   0  0  0  0  0  0  0  0  0  0  0  0
    0.6930   -1.6582    0.0000 C   0  0  0  0  0  0  0  0  0  0  0  0
    1.4189   -0.4207    0.0000 O   0  0  0  0  0  0  0  0  0  0  0  0
    0.0000   -2.9122    0.0000 C   0  0  0  0  0  0  0  0  0  0  0  0
    0.0000   -1.2540    0.0000 O   0  0  0  0  0  0  0  0  0  0  0  0
    2.1284    0.0000    0.0000 C   0  0  0  0  0  0  0  0  0  0  0  0
  1  2  1  0
  1  3  1  0
  1  4  1  0
  1  5  1  6
  2  6  1  1
  2  7  1  0
  3  8  1  0
  3  9  1  6
  4 10  1  0
  4 11  2  0
  6 10  1  0
  7 12  1  0
  7 13  1  1
  8 14  1  0
  8 15  2  0
  9 12  2  0
 11 16  1  0
 12 17  1  0
 18 14  1  0
 16 19  2  0
 18 20  1  1
 18 21  1  0
 19 22  1  0
 23 20  1  1
 21 24  1  0
 22 25  1  0
 22 26  1  6
 23 27  1  0
 23 28  1  0
 23 29  1  0
 24 30  1  1
 24 27  1  0
 25 31  1  6
 25 32  1  0
 33 28  1  1
 29 34  2  0
 30 35  1  0
 36 31  1  6
 32 37  1  0
 32 35  2  0
 33 38  1  0
 33 39  1  0
 34 38  1  0
 36 40  1  0
 36 41  1  0
 38 42  1  6
 39 43  1  0
 39 44  1  1
 40 45  1  0
 41 46  1  0
 43 47  1  0
 45 48  1  0
 45 49  1  1
 46 50  1  1
 46 48  1  0
 48 51  1  6
 49 52  1  0
 53 51  1  6
 53 54  1  0
 53 55  1  0
 54 56  1  0
 55 57  1  0
 56 58  1  0
 56 59  1  1
 57 60  1  1
 57 58  1  0
 58 61  1  6
 59 62  1  0
M  END
>  <Formula>  (309) 
C48H72O14

>  <FW>  (309) 
873.0769

>  <DSSTox_CID>  (309) 
3892

>  <NR-AR>  (309) 
0

>  <NR-AR-LBD>  (309) 
0

>  <NR-AhR>  (309) 
0

>  <SR-ARE>  (309) 
1

>  <SR-ATAD5>  (309) 
0

>  <SR-HSE>  (309) 
0

>  <SR-MMP>  (309) 
1

$$$$
NCGC00257389-01
     RDKit          2D

 25 28  0  0  0  0  0  0  0  0999 V2000
    3.7446   -0.2399    0.0000 N   0  0  0  0  0  0  0  0  0  0  0  0
    4.4584   -0.5910    0.0000 C   0  0  0  0  0  0  0  0  0  0  0  0
    4.6281   -1.4042    0.0000 C   0  0  0  0  0  0  0  0  0  0  0  0
    4.1132   -2.0186    0.0000 N   0  0  0  0  0  0  0  0  0  0  0  0
    3.2999   -2.0186    0.0000 C   0  0  0  0  0  0  0  0  0  0  0  0
    2.7909   -1.3633    0.0000 C   0  0  0  0  0  0  0  0  0  0  0  0
    3.0015   -0.5675    0.0000 C   0  0  0  0  0  0  0  0  0  0  0  0
    2.3931    0.0000    0.0000 C   0  0  0  0  0  0  0  0  0  0  0  0
    1.5973   -0.2224    0.0000 C   0  0  0  0  0  0  0  0  0  0  0  0
    1.3925   -1.0181    0.0000 C   0  0  0  0  0  0  0  0  0  0  0  0
    1.9952   -1.5622    0.0000 C   0  0  0  0  0  0  0  0  0  0  0  0
    5.1957   -0.1697    0.0000 N   0  0  0  0  0  0  0  0  0  0  0  0
    5.8334   -0.7548    0.0000 N   0  0  0  0  0  0  0  0  0  0  0  0
    5.4648   -1.5213    0.0000 C   0  0  0  0  0  0  0  0  0  0  0  0
    2.9313   -4.2244    0.0000 C   0  0  0  0  0  0  0  0  0  0  0  0
    2.1063   -4.2244    0.0000 C   0  0  0  0  0  0  0  0  0  0  0  0
    1.6909   -3.5106    0.0000 C   0  0  0  0  0  0  0  0  0  0  0  0
    2.1063   -2.7968    0.0000 C   0  0  0  0  0  0  0  0  0  0  0  0
    2.9313   -2.7968    0.0000 C   0  0  0  0  0  0  0  0  0  0  0  0
    3.3350   -3.5106    0.0000 C   0  0  0  0  0  0  0  0  0  0  0  0
    4.1600   -3.5106    0.0000 Cl  0  0  0  0  0  0  0  0  0  0  0  0
    5.8510   -2.2292    0.0000 C   0  0  0  0  0  0  0  0  0  0  0  0
    0.6085   -1.2521    0.0000 N   0  0  0  0  0  0  0  0  0  0  0  0
    0.0000   -0.6963    0.0000 O   0  0  0  0  0  0  0  0  0  0  0  0
    0.4095   -2.0595    0.0000 O   0  0  0  0  0  0  0  0  0  0  0  0
  1  2  1  0
  1  7  1  0
  2  3  1  0
  2 12  2  0
  3  4  1  0
  3 14  2  0
  4  5  2  0
  5  6  1  0
  5 19  1  0
  6  7  2  0
  6 11  1  0
  7  8  1  0
  8  9  2  0
  9 10  1  0
 10 11  2  0
 10 23  1  0
 12 13  1  0
 13 14  1  0
 14 22  1  0
 15 20  2  0
 15 16  1  0
 16 17  2  0
 17 18  1  0
 18 19  2  0
 19 20  1  0
 20 21  1  0
 23 24  1  0
 23 25  2  0
M  CHG  2  23   1  24  -1
M  END
>  <Formula>  (310) 
C17H12ClN5O2

>  <FW>  (310) 
353.7625

>  <DSSTox_CID>  (310) 
28479

>  <NR-Aromatase>  (310) 
1

>  <NR-AR>  (310) 
0

>  <NR-AR-LBD>  (310) 
0

>  <NR-ER-LBD>  (310) 
1

>  <NR-AhR>  (310) 
1

>  <SR-ARE>  (310) 
1

>  <SR-ATAD5>  (310) 
1

>  <SR-p53>  (310) 
1

$$$$
NCGC00259453-01
     RDKit          2D

 29 33  0  0  1  0  0  0  0  0999 V2000
    4.9523   -2.7041    0.0000 C   0  0  0  0  0  0  0  0  0  0  0  0
    4.2449   -3.9304    0.0000 C   0  0  0  0  0  0  0  0  0  0  0  0
    3.5374   -3.5059    0.0000 C   0  0  0  0  0  0  0  0  0  0  0  0
    4.9523   -3.5059    0.0000 C   0  0  0  0  0  0  0  0  0  0  0  0
    5.6598   -2.2797    0.0000 C   0  0  0  0  0  0  0  0  0  0  0  0
    2.8378   -3.9304    0.0000 C   0  0  0  0  0  0  0  0  0  0  0  0
    4.2449   -2.2797    0.0000 O   0  0  0  0  0  0  0  0  0  0  0  0
    3.5374   -2.7041    0.0000 C   0  0  0  0  0  0  0  0  0  0  0  0
    2.1303   -3.5059    0.0000 C   0  0  0  0  0  0  0  0  0  0  0  0
    6.9648   -2.1382    0.0000 O   0  0  0  0  0  0  0  0  0  0  0  0
    6.3674   -2.7041    0.0000 C   0  0  0  0  0  0  0  0  0  0  0  0
    5.8407   -1.4857    0.0000 C   0  0  0  0  0  0  0  0  0  0  0  0
    6.6503   -1.4071    0.0000 C   0  0  0  0  0  0  0  0  0  0  0  0
    2.8378   -4.7323    0.0000 C   0  0  0  0  0  0  0  0  0  0  0  0
    2.1303   -2.7041    0.0000 O   0  0  0  0  0  0  0  0  0  0  0  0
    1.4228   -3.9304    0.0000 C   0  0  0  0  0  0  0  0  0  0  0  0
    5.6598   -3.9304    0.0000 C   0  0  0  0  0  0  0  0  0  0  0  0
    2.1303   -5.1568    0.0000 C   0  0  0  0  0  0  0  0  0  0  0  0
    1.4228   -4.7323    0.0000 C   0  0  0  0  0  0  0  0  0  0  0  0
    7.0669   -0.7154    0.0000 C   0  0  0  0  0  0  0  0  0  0  0  0
    2.8378   -2.2797    0.0000 C   0  0  0  0  0  0  0  0  0  0  0  0
    4.2449   -4.7323    0.0000 O   0  0  0  0  0  0  0  0  0  0  0  0
    6.3674   -3.5059    0.0000 C   0  0  0  0  0  0  0  0  0  0  0  0
    6.6424    0.0000    0.0000 C   0  0  0  0  0  0  0  0  0  0  0  0
    2.1303   -5.9664    0.0000 O   0  0  0  0  0  0  0  0  0  0  0  0
    0.7075   -5.1646    0.0000 O   0  0  0  0  0  0  0  0  0  0  0  0
    7.8609   -0.7075    0.0000 C   0  0  0  0  0  0  0  0  0  0  0  0
    0.0000   -4.7401    0.0000 C   0  0  0  0  0  0  0  0  0  0  0  0
    1.4228   -6.3752    0.0000 C   0  0  0  0  0  0  0  0  0  0  0  0
  1  4  2  0
  1  5  1  0
  1  7  1  0
  2  4  1  0
  2 22  2  0
  3  2  1  1
  3  8  1  0
  3  6  1  0
  4 17  1  0
  5 11  2  0
  5 12  1  0
  6 14  2  0
  6  9  1  0
  7  8  1  0
  8 21  1  1
  9 15  1  0
  9 16  2  0
 10 11  1  0
 10 13  1  0
 11 23  1  0
 12 13  1  0
 13 20  1  6
 14 18  1  0
 15 21  1  0
 16 19  1  0
 17 23  2  0
 18 25  1  0
 18 19  2  0
 19 26  1  0
 20 24  2  0
 20 27  1  0
 25 29  1  0
 26 28  1  0
M  END
>  <Formula>  (311) 
C23H22O6

>  <FW>  (311) 
394.4172

>  <DSSTox_CID>  (311) 
1248

>  <NR-AR>  (311) 
0

>  <NR-AR-LBD>  (311) 
0

>  <SR-ARE>  (311) 
1

>  <SR-ATAD5>  (311) 
0

>  <SR-HSE>  (311) 
0

>  <SR-p53>  (311) 
1

$$$$
NCGC00255014-01
     RDKit          2D

 26 27  0  0  0  0  0  0  0  0999 V2000
    2.7636   -1.4299    0.0000 N   0  0  0  0  0  0  0  0  0  0  0  0
    3.5886   -1.4299    0.0000 C   0  0  0  0  0  0  0  0  0  0  0  0
    2.2755   -2.0968    0.0000 C   0  0  0  0  0  0  0  0  0  0  0  0
    2.2755   -0.7631    0.0000 N   0  0  0  0  0  0  0  0  0  0  0  0
    4.0011   -0.7150    0.0000 C   0  0  0  0  0  0  0  0  0  0  0  0
    4.0011   -2.1449    0.0000 C   0  0  0  0  0  0  0  0  0  0  0  0
    1.4987   -1.8355    0.0000 C   0  0  0  0  0  0  0  0  0  0  0  0
    2.5299   -2.8805    0.0000 N   0  0  0  0  0  0  0  0  0  0  0  0
    1.4987   -1.0243    0.0000 C   0  0  0  0  0  0  0  0  0  0  0  0
    4.8192   -0.7150    0.0000 C   0  0  0  0  0  0  0  0  0  0  0  0
    3.5886    0.0000    0.0000 Cl  0  0  0  0  0  0  0  0  0  0  0  0
    4.8192   -2.1449    0.0000 C   0  0  0  0  0  0  0  0  0  0  0  0
    3.5886   -2.8530    0.0000 Cl  0  0  0  0  0  0  0  0  0  0  0  0
    0.8250   -2.3237    0.0000 S   0  0  0  0  0  0  0  0  0  0  0  0
    0.8319   -0.5362    0.0000 C   0  0  0  0  0  0  0  0  0  0  0  0
    5.2386   -1.4299    0.0000 C   0  0  0  0  0  0  0  0  0  0  0  0
    0.8250   -3.1486    0.0000 C   0  0  0  0  0  0  0  0  0  0  0  0
    0.1168   -1.9181    0.0000 O   0  0  0  0  0  0  0  0  0  0  0  0
    0.1719   -0.0481    0.0000 N   0  0  0  0  0  0  0  0  0  0  0  0
    6.0636   -1.4299    0.0000 C   0  0  0  0  0  0  0  0  0  0  0  0
    1.6499   -3.1486    0.0000 F   0  0  0  0  0  0  0  0  0  0  0  0
    0.8250   -3.9736    0.0000 F   0  0  0  0  0  0  0  0  0  0  0  0
    0.0000   -3.1486    0.0000 F   0  0  0  0  0  0  0  0  0  0  0  0
    6.0636   -0.6050    0.0000 F   0  0  0  0  0  0  0  0  0  0  0  0
    6.8748   -1.4299    0.0000 F   0  0  0  0  0  0  0  0  0  0  0  0
    6.0636   -2.2549    0.0000 F   0  0  0  0  0  0  0  0  0  0  0  0
  1  2  1  0
  1  3  1  0
  1  4  1  0
  2  5  2  0
  2  6  1  0
  3  7  2  0
  3  8  1  0
  4  9  2  0
  5 10  1  0
  5 11  1  0
  6 12  2  0
  6 13  1  0
  7 14  1  0
  7  9  1  0
  9 15  1  0
 10 16  2  0
 12 16  1  0
 14 17  1  0
 14 18  2  0
 15 19  3  0
 16 20  1  0
 17 21  1  0
 17 22  1  0
 17 23  1  0
 20 24  1  0
 20 25  1  0
 20 26  1  0
M  END
>  <Formula>  (312) 
C12H4Cl2F6N4OS

>  <FW>  (312) 
437.1478

>  <DSSTox_CID>  (312) 
14609

>  <NR-AR>  (312) 
0

>  <NR-ER-LBD>  (312) 
0

>  <NR-AhR>  (312) 
0

>  <SR-ARE>  (312) 
1

>  <SR-ATAD5>  (312) 
0

>  <SR-HSE>  (312) 
0

$$$$
NCGC00254130-01
     RDKit          2D

 43 47  0  0  0  0  0  0  0  0999 V2000
    0.0000   -3.2528    0.0000 C   0  0  0  0  0  0  0  0  0  0  0  0
    0.4958   -2.5999    0.0000 C   0  0  0  0  0  0  0  0  0  0  0  0
    1.3060   -2.6724    0.0000 O   0  0  0  0  0  0  0  0  0  0  0  0
    1.8018   -2.0074    0.0000 C   0  0  0  0  0  0  0  0  0  0  0  0
    1.4752   -1.2455    0.0000 C   0  0  0  0  0  0  0  0  0  0  0  0
    1.9469   -0.5804    0.0000 C   0  0  0  0  0  0  0  0  0  0  0  0
    2.7692   -0.6651    0.0000 C   0  0  0  0  0  0  0  0  0  0  0  0
    3.0956   -1.4269    0.0000 C   0  0  0  0  0  0  0  0  0  0  0  0
    2.6240   -2.0920    0.0000 C   0  0  0  0  0  0  0  0  0  0  0  0
    3.9300   -1.4995    0.0000 N   0  0  0  0  0  0  0  0  0  0  0  0
    4.4863   -0.8949    0.0000 C   0  0  0  0  0  0  0  0  0  0  0  0
    5.2360   -1.2334    0.0000 C   0  0  0  0  0  0  0  0  0  0  0  0
    5.1393   -2.0557    0.0000 N   0  0  0  0  0  0  0  0  0  0  0  0
    4.3532   -2.2250    0.0000 C   0  0  0  0  0  0  0  0  0  0  0  0
    4.0147   -2.9747    0.0000 C   0  0  0  0  0  0  0  0  0  0  0  0
    4.4863   -3.6398    0.0000 C   0  0  0  0  0  0  0  0  0  0  0  0
    4.1598   -4.4016    0.0000 C   0  0  0  0  0  0  0  0  0  0  0  0
    3.3254   -4.4863    0.0000 C   0  0  0  0  0  0  0  0  0  0  0  0
    2.9868   -5.2360    0.0000 C   0  0  0  0  0  0  0  0  0  0  0  0
    2.8417   -3.8212    0.0000 C   0  0  0  0  0  0  0  0  0  0  0  0
    3.1803   -3.0715    0.0000 C   0  0  0  0  0  0  0  0  0  0  0  0
    5.9374   -0.8102    0.0000 C   0  0  0  0  0  0  0  0  0  0  0  0
    5.9374    0.0000    0.0000 O   0  0  0  0  0  0  0  0  0  0  0  0
    6.6629   -1.2334    0.0000 N   0  0  0  0  0  0  0  0  0  0  0  0
    7.3763   -0.8102    0.0000 C   0  0  0  0  0  0  0  0  0  0  0  0
    8.0898   -1.2334    0.0000 C   0  0  0  0  0  0  0  0  0  0  0  0
    8.0898   -2.0557    0.0000 N   0  0  0  0  0  0  0  0  0  0  0  0
    7.3763   -2.4789    0.0000 C   0  0  0  0  0  0  0  0  0  0  0  0
    6.6629   -2.0678    0.0000 C   0  0  0  0  0  0  0  0  0  0  0  0
    8.8154   -2.4789    0.0000 C   0  0  0  0  0  0  0  0  0  0  0  0
    9.5167   -2.0557    0.0000 C   0  0  0  0  0  0  0  0  0  0  0  0
   10.2423   -2.4789    0.0000 C   0  0  0  0  0  0  0  0  0  0  0  0
   10.9678   -2.0557    0.0000 C   0  0  0  0  0  0  0  0  0  0  0  0
   11.6571   -2.4789    0.0000 O   0  0  0  0  0  0  0  0  0  0  0  0
   10.9678   -1.2213    0.0000 O   0  0  0  0  0  0  0  0  0  0  0  0
   10.2423   -3.3012    0.0000 C   0  0  0  0  0  0  0  0  0  0  0  0
   10.9557   -3.7002    0.0000 C   0  0  0  0  0  0  0  0  0  0  0  0
   10.9557   -4.5347    0.0000 C   0  0  0  0  0  0  0  0  0  0  0  0
   10.2302   -4.9579    0.0000 C   0  0  0  0  0  0  0  0  0  0  0  0
    9.5167   -4.5347    0.0000 C   0  0  0  0  0  0  0  0  0  0  0  0
    9.5167   -3.7002    0.0000 C   0  0  0  0  0  0  0  0  0  0  0  0
    8.8154   -3.3012    0.0000 C   0  0  0  0  0  0  0  0  0  0  0  0
   12.0924   -1.4511    0.0000 Na  0  0  0  0  0 15  0  0  0  0  0  0
  1  2  1  0
  2  3  1  0
  3  4  1  0
  4  5  2  0
  4  9  1  0
  5  6  1  0
  6  7  2  0
  7  8  1  0
  8  9  2  0
  8 10  1  0
 10 11  1  0
 10 14  1  0
 11 12  2  0
 12 13  1  0
 12 22  1  0
 13 14  2  0
 14 15  1  0
 15 16  2  0
 15 21  1  0
 16 17  1  0
 17 18  2  0
 18 19  1  0
 18 20  1  0
 20 21  2  0
 22 23  2  0
 22 24  1  0
 24 25  1  0
 24 29  1  0
 25 26  1  0
 26 27  1  0
 27 28  1  0
 27 30  1  0
 28 29  1  0
 30 31  2  0
 30 42  1  0
 31 32  1  0
 32 33  1  0
 32 36  2  0
 33 34  2  0
 33 35  1  0
 36 37  1  0
 36 41  1  0
 37 38  2  0
 38 39  1  0
 39 40  2  0
 40 41  1  0
 41 42  2  0
M  CHG  2  35  -1  43   1
M  END
>  <Formula>  (313) 
C34H31N4NaO4

>  <FW>  (313) 
582.6241 (559.6349+22.9892)

>  <DSSTox_CID>  (313) 
27337

>  <NR-Aromatase>  (313) 
0

>  <NR-AR>  (313) 
0

>  <NR-AR-LBD>  (313) 
0

>  <NR-ER>  (313) 
0

>  <NR-AhR>  (313) 
0

>  <SR-ARE>  (313) 
1

>  <SR-HSE>  (313) 
0

>  <SR-MMP>  (313) 
1

$$$$
NCGC00254993-01
     RDKit          2D

 22 24  0  0  1  0  0  0  0  0999 V2000
    3.6689   -2.6734    0.0000 N   0  0  0  0  0  0  0  0  0  0  0  0
    2.5839   -3.4395    0.0000 N   0  0  0  0  0  0  0  0  0  0  0  0
    3.4116   -3.4395    0.0000 C   0  0  0  0  0  0  0  0  0  0  0  0
    3.0089   -2.1644    0.0000 C   0  0  0  0  0  0  0  0  0  0  0  0
    2.3322   -2.6510    0.0000 C   0  0  0  0  0  0  0  0  0  0  0  0
    3.0201   -1.3478    0.0000 O   0  0  0  0  0  0  0  0  0  0  0  0
    4.4575   -2.4217    0.0000 N   0  0  0  0  0  0  0  0  0  0  0  0
    4.6364   -1.6051    0.0000 C   0  0  0  0  0  0  0  0  0  0  0  0
    4.0268   -1.0571    0.0000 C   0  0  0  0  0  0  0  0  0  0  0  0
    5.4250   -1.3590    0.0000 C   0  0  0  0  0  0  0  0  0  0  0  0
    4.2058   -0.2405    0.0000 C   0  0  0  0  0  0  0  0  0  0  0  0
    5.5928   -0.5593    0.0000 C   0  0  0  0  0  0  0  0  0  0  0  0
    4.9944    0.0000    0.0000 C   0  0  0  0  0  0  0  0  0  0  0  0
    1.7841   -2.0358    0.0000 C   0  0  0  0  0  0  0  0  0  0  0  0
    3.8982   -4.1163    0.0000 S   0  0  0  0  0  0  0  0  0  0  0  0
    3.5514   -4.8657    0.0000 C   0  0  0  0  0  0  0  0  0  0  0  0
    1.5548   -2.9306    0.0000 C   0  0  0  0  0  0  0  0  0  0  0  0
    1.4038   -3.7416    0.0000 C   0  0  0  0  0  0  0  0  0  0  0  0
    0.9396   -2.3825    0.0000 C   0  0  0  0  0  0  0  0  0  0  0  0
    0.6264   -4.0156    0.0000 C   0  0  0  0  0  0  0  0  0  0  0  0
    0.1510   -2.6622    0.0000 C   0  0  0  0  0  0  0  0  0  0  0  0
    0.0000   -3.4787    0.0000 C   0  0  0  0  0  0  0  0  0  0  0  0
  1  3  1  0
  1  4  1  0
  1  7  1  0
  2  3  2  0
  2  5  1  0
  3 15  1  0
  4  5  1  0
  4  6  2  0
  5 14  1  6
  5 17  1  0
  7  8  1  0
  8  9  2  0
  8 10  1  0
  9 11  1  0
 10 12  2  0
 11 13  2  0
 12 13  1  0
 15 16  1  0
 17 18  2  0
 17 19  1  0
 18 20  1  0
 19 21  2  0
 20 22  2  0
 21 22  1  0
M  END
>  <Formula>  (314) 
C17H17N3OS

>  <FW>  (314) 
311.4014

>  <DSSTox_CID>  (314) 
14590

>  <NR-Aromatase>  (314) 
1

>  <NR-AR>  (314) 
0

>  <NR-AhR>  (314) 
0

>  <SR-ARE>  (314) 
1

>  <SR-ATAD5>  (314) 
0

>  <SR-HSE>  (314) 
0

>  <SR-MMP>  (314) 
1

>  <SR-p53>  (314) 
0

$$$$
NCGC00254069-01
     RDKit          2D

 48 54  0  0  0  0  0  0  0  0999 V2000
    3.4702   -8.6580    0.0000 C   0  0  0  0  0  0  0  0  0  0  0  0
    4.5335   -9.4525    0.0000 C   0  0  0  0  0  0  0  0  0  0  0  0
    4.0194   -9.0202    0.0000 C   0  0  0  0  0  0  0  0  0  0  0  0
    3.0496   -9.0202    0.0000 C   0  0  0  0  0  0  0  0  0  0  0  0
    2.9093   -8.2140    0.0000 N   0  0  0  0  0  0  0  0  0  0  0  0
    4.3933   -8.6346    0.0000 C   0  0  0  0  0  0  0  0  0  0  0  0
    2.5238   -9.7446    0.0000 C   0  0  0  0  0  0  0  0  0  0  0  0
    3.1430   -9.3590    0.0000 C   0  0  0  0  0  0  0  0  0  0  0  0
    4.5452  -10.2003    0.0000 N   0  0  0  0  0  0  0  0  0  0  0  0
    4.0428  -10.8546    0.0000 C   0  0  0  0  0  0  0  0  0  0  0  0
    3.2365  -10.8663    0.0000 C   0  0  0  0  0  0  0  0  0  0  0  0
    4.5452  -11.5206    0.0000 N   0  0  0  0  0  0  0  0  0  0  0  0
    5.3163  -11.2519    0.0000 C   0  0  0  0  0  0  0  0  0  0  0  0
    6.0290  -11.6842    0.0000 C   0  0  0  0  0  0  0  0  0  0  0  0
    6.7418  -11.2752    0.0000 C   0  0  0  0  0  0  0  0  0  0  0  0
    6.7418  -10.4456    0.0000 C   0  0  0  0  0  0  0  0  0  0  0  0
    6.0290  -10.0250    0.0000 C   0  0  0  0  0  0  0  0  0  0  0  0
    5.3163  -10.4456    0.0000 C   0  0  0  0  0  0  0  0  0  0  0  0
    5.3280    0.0000    0.0000 C   0  0  0  0  0  0  0  0  0  0  0  0
    5.5850   -0.7595    0.0000 N   0  0  0  0  0  0  0  0  0  0  0  0
    5.0359   -1.3904    0.0000 S   0  0  0  0  0  0  0  0  0  0  0  0
    5.6435   -1.9396    0.0000 O   0  0  0  0  0  0  0  0  0  0  0  0
    4.4283   -0.8296    0.0000 O   0  0  0  0  0  0  0  0  0  0  0  0
    4.4867   -2.0097    0.0000 C   0  0  0  0  0  0  0  0  0  0  0  0
    4.7438   -2.7925    0.0000 C   0  0  0  0  0  0  0  0  0  0  0  0
    4.1829   -3.4001    0.0000 C   0  0  0  0  0  0  0  0  0  0  0  0
    4.4400   -4.1829    0.0000 C   0  0  0  0  0  0  0  0  0  0  0  0
    5.2462   -4.3582    0.0000 O   0  0  0  0  0  0  0  0  0  0  0  0
    3.8908   -4.7905    0.0000 N   0  0  0  0  0  0  0  0  0  0  0  0
    3.0846   -4.6270    0.0000 C   0  0  0  0  0  0  0  0  0  0  0  0
    2.5238   -5.2229    0.0000 C   0  0  0  0  0  0  0  0  0  0  0  0
    2.7925   -6.0056    0.0000 C   0  0  0  0  0  0  0  0  0  0  0  0
    2.6056   -6.8236    0.0000 C   0  0  0  0  0  0  0  0  0  0  0  0
    3.2365   -7.3727    0.0000 C   0  0  0  0  0  0  0  0  0  0  0  0
    3.5870   -6.1809    0.0000 C   0  0  0  0  0  0  0  0  0  0  0  0
    4.1362   -5.5850    0.0000 C   0  0  0  0  0  0  0  0  0  0  0  0
    1.9980   -6.2627    0.0000 C   0  0  0  0  0  0  0  0  0  0  0  0
    1.8461   -7.0690    0.0000 C   0  0  0  0  0  0  0  0  0  0  0  0
    1.0516   -7.3260    0.0000 C   0  0  0  0  0  0  0  0  0  0  0  0
    0.4323   -6.7885    0.0000 C   0  0  0  0  0  0  0  0  0  0  0  0
    0.6076   -5.9590    0.0000 C   0  0  0  0  0  0  0  0  0  0  0  0
    0.0000   -5.4214    0.0000 F   0  0  0  0  0  0  0  0  0  0  0  0
    1.3904   -5.7253    0.0000 C   0  0  0  0  0  0  0  0  0  0  0  0
    3.3768   -3.2248    0.0000 C   0  0  0  0  0  0  0  0  0  0  0  0
    2.8159   -3.8441    0.0000 Cl  0  0  0  0  0  0  0  0  0  0  0  0
    3.1197   -2.4537    0.0000 C   0  0  0  0  0  0  0  0  0  0  0  0
    3.6805   -1.8344    0.0000 C   0  0  0  0  0  0  0  0  0  0  0  0
    3.4118   -1.0516    0.0000 F   0  0  0  0  0  0  0  0  0  0  0  0
  1  5  1  0
  1  6  1  0
  1  8  1  0
  2  3  1  0
  2  6  1  0
  2  9  1  0
  3  4  1  0
  4  5  1  0
  4  7  1  0
  5 34  1  0
  7  8  1  0
  9 10  1  0
  9 18  1  0
 10 11  1  0
 10 12  2  0
 12 13  1  0
 13 14  1  0
 13 18  2  0
 14 15  2  0
 15 16  1  0
 16 17  2  0
 17 18  1  0
 19 20  1  0
 20 21  1  0
 21 22  2  0
 21 23  2  0
 21 24  1  0
 24 25  2  0
 24 47  1  0
 25 26  1  0
 26 27  1  0
 26 44  2  0
 27 28  2  0
 27 29  1  0
 29 30  1  0
 29 36  1  0
 30 31  1  0
 31 32  1  0
 32 33  1  0
 32 35  1  0
 32 37  1  0
 33 34  1  0
 35 36  1  0
 37 38  2  0
 37 43  1  0
 38 39  1  0
 39 40  2  0
 40 41  1  0
 41 42  1  0
 41 43  2  0
 44 45  1  0
 44 46  1  0
 46 47  2  0
 47 48  1  0
M  END
>  <Formula>  (315) 
C36H40ClF2N5O3S

>  <FW>  (315) 
696.2493

>  <DSSTox_CID>  (315) 
27311

>  <NR-AR>  (315) 
0

>  <NR-AR-LBD>  (315) 
0

>  <NR-ER-LBD>  (315) 
0

>  <NR-AhR>  (315) 
0

>  <SR-ARE>  (315) 
1

>  <SR-ATAD5>  (315) 
0

>  <SR-HSE>  (315) 
0

>  <SR-p53>  (315) 
0

$$$$
NCGC00254229-01
     RDKit          2D

 32 34  0  0  0  0  0  0  0  0999 V2000
    4.2848   -0.4276    0.0000 C   0  0  0  0  0  0  0  0  0  0  0  0
    4.2848   -1.2463    0.0000 C   0  0  0  0  0  0  0  0  0  0  0  0
    3.5752    0.0000    0.0000 C   0  0  0  0  0  0  0  0  0  0  0  0
    3.5752   -1.6557    0.0000 N   0  0  0  0  0  0  0  0  0  0  0  0
    2.8657   -0.4276    0.0000 C   0  0  0  0  0  0  0  0  0  0  0  0
    2.8657   -1.2463    0.0000 C   0  0  0  0  0  0  0  0  0  0  0  0
    1.4283   -0.4276    0.0000 C   0  0  0  0  0  0  0  0  0  0  0  0
    1.4283   -1.2463    0.0000 C   0  0  0  0  0  0  0  0  0  0  0  0
    0.7187    0.0000    0.0000 N   0  0  0  0  0  0  0  0  0  0  0  0
    0.7187   -1.6557    0.0000 C   0  0  0  0  0  0  0  0  0  0  0  0
    0.0000   -0.4276    0.0000 C   0  0  0  0  0  0  0  0  0  0  0  0
    0.0000   -1.2463    0.0000 C   0  0  0  0  0  0  0  0  0  0  0  0
    2.1469   -1.6557    0.0000 O   0  0  0  0  0  0  0  0  0  0  0  0
    5.0035    0.0000    0.0000 N   0  0  0  0  0  0  0  0  0  0  0  0
    5.7131   -0.4276    0.0000 C   0  0  0  0  0  0  0  0  0  0  0  0
    6.4318    0.0000    0.0000 O   0  0  0  0  0  0  0  0  0  0  0  0
    5.7131   -1.2463    0.0000 N   0  0  0  0  0  0  0  0  0  0  0  0
    6.3863   -1.7285    0.0000 C   0  0  0  0  0  0  0  0  0  0  0  0
    5.0490   -1.7285    0.0000 C   0  0  0  0  0  0  0  0  0  0  0  0
    6.1316   -2.5108    0.0000 C   0  0  0  0  0  0  0  0  0  0  0  0
    5.3128   -2.5108    0.0000 C   0  0  0  0  0  0  0  0  0  0  0  0
    7.1959   -1.5556    0.0000 C   0  0  0  0  0  0  0  0  0  0  0  0
    7.7418   -2.1742    0.0000 C   0  0  0  0  0  0  0  0  0  0  0  0
    6.6774   -3.1295    0.0000 C   0  0  0  0  0  0  0  0  0  0  0  0
    7.4870   -2.9566    0.0000 C   0  0  0  0  0  0  0  0  0  0  0  0
    2.1469    0.0000    0.0000 C   0  0  0  0  0  0  0  0  0  0  0  0
    8.5514   -1.9832    0.0000 C   0  0  0  0  0  0  0  0  0  0  0  0
    9.0973   -2.6109    0.0000 F   0  0  0  0  0  0  0  0  0  0  0  0
    8.8152   -1.2190    0.0000 F   0  0  0  0  0  0  0  0  0  0  0  0
    8.0056   -1.3919    0.0000 F   0  0  0  0  0  0  0  0  0  0  0  0
    8.0420   -3.5662    0.0000 C   0  0  0  0  0  0  0  0  0  0  0  0
    3.7208   -2.7656    0.0000 Cl  0  0  0  0  0  0  0  0  0  0  0  0
  1  2  2  0
  1  3  1  0
  1 14  1  0
  2  4  1  0
  3  5  2  0
  4  6  2  0
  5  6  1  0
  6 13  1  0
  7  8  2  0
  7  9  1  0
  7 26  1  0
  8 10  1  0
  8 13  1  0
  9 11  2  0
 10 12  2  0
 11 12  1  0
 14 15  1  0
 15 16  2  0
 15 17  1  0
 17 18  1  0
 17 19  1  0
 18 22  2  0
 18 20  1  0
 19 21  1  0
 20 21  1  0
 20 24  2  0
 22 23  1  0
 23 25  2  0
 23 27  1  0
 24 25  1  0
 25 31  1  0
 27 28  1  0
 27 29  1  0
 27 30  1  0
M  END
>  <Formula>  (316) 
C22H20ClF3N4O2

>  <FW>  (316) 
464.8680 (428.4071+36.4609)

>  <DSSTox_CID>  (316) 
27322

>  <NR-AR>  (316) 
0

>  <NR-AR-LBD>  (316) 
0

>  <NR-ER-LBD>  (316) 
0

>  <NR-AhR>  (316) 
0

>  <SR-ARE>  (316) 
1

>  <SR-HSE>  (316) 
0

>  <SR-MMP>  (316) 
1

>  <SR-p53>  (316) 
0

$$$$
NCGC00182713-01
     RDKit          2D

 34 37  0  0  0  0  0  0  0  0999 V2000
    6.4307   -1.6602    0.0000 C   0  0  0  0  0  0  0  0  0  0  0  0
    6.4307   -2.4902    0.0000 C   0  0  0  0  0  0  0  0  0  0  0  0
    5.7206   -1.2401    0.0000 C   0  0  0  0  0  0  0  0  0  0  0  0
    5.7206   -2.8903    0.0000 C   0  0  0  0  0  0  0  0  0  0  0  0
    5.0005   -1.6602    0.0000 C   0  0  0  0  0  0  0  0  0  0  0  0
    5.0005   -2.4902    0.0000 C   0  0  0  0  0  0  0  0  0  0  0  0
    7.1508   -1.2401    0.0000 N   0  0  0  0  0  0  0  0  0  0  0  0
    7.8608   -1.6602    0.0000 C   0  0  0  0  0  0  0  0  0  0  0  0
    7.1508   -2.8903    0.0000 C   0  0  0  0  0  0  0  0  0  0  0  0
    7.8608   -2.4902    0.0000 N   0  0  0  0  0  0  0  0  0  0  0  0
    4.2804   -1.2401    0.0000 O   0  0  0  0  0  0  0  0  0  0  0  0
    3.5704   -1.6602    0.0000 C   0  0  0  0  0  0  0  0  0  0  0  0
    2.8503   -1.2401    0.0000 C   0  0  0  0  0  0  0  0  0  0  0  0
    2.1502   -1.6501    0.0000 C   0  0  0  0  0  0  0  0  0  0  0  0
    1.4301   -1.2401    0.0000 N   0  0  0  0  0  0  0  0  0  0  0  0
    0.7201   -1.6501    0.0000 C   0  0  0  0  0  0  0  0  0  0  0  0
    1.4301   -0.4200    0.0000 C   0  0  0  0  0  0  0  0  0  0  0  0
    0.0000   -1.2401    0.0000 C   0  0  0  0  0  0  0  0  0  0  0  0
    0.7201    0.0000    0.0000 C   0  0  0  0  0  0  0  0  0  0  0  0
    0.0000   -0.4200    0.0000 O   0  0  0  0  0  0  0  0  0  0  0  0
    4.2804   -2.8903    0.0000 N   0  0  0  0  0  0  0  0  0  0  0  0
    4.2804   -3.7204    0.0000 C   0  0  0  0  0  0  0  0  0  0  0  0
    3.5704   -4.1304    0.0000 C   0  0  0  0  0  0  0  0  0  0  0  0
    5.0005   -4.1404    0.0000 O   0  0  0  0  0  0  0  0  0  0  0  0
    2.8503   -3.7204    0.0000 C   0  0  0  0  0  0  0  0  0  0  0  0
    7.1508   -3.7204    0.0000 N   0  0  0  0  0  0  0  0  0  0  0  0
    7.8608   -4.1404    0.0000 C   0  0  0  0  0  0  0  0  0  0  0  0
    8.5809   -3.7204    0.0000 C   0  0  0  0  0  0  0  0  0  0  0  0
    7.8608   -4.9605    0.0000 C   0  0  0  0  0  0  0  0  0  0  0  0
    9.2810   -4.1404    0.0000 C   0  0  0  0  0  0  0  0  0  0  0  0
    8.5809   -5.3706    0.0000 C   0  0  0  0  0  0  0  0  0  0  0  0
    9.2810   -4.9605    0.0000 C   0  0  0  0  0  0  0  0  0  0  0  0
   10.0010   -3.7204    0.0000 Cl  0  0  0  0  0  0  0  0  0  0  0  0
   10.0010   -5.3706    0.0000 F   0  0  0  0  0  0  0  0  0  0  0  0
  1  3  2  0
  1  7  1  0
  1  2  1  0
  2  4  2  0
  2  9  1  0
  3  5  1  0
  4  6  1  0
  5  6  2  0
  5 11  1  0
  6 21  1  0
  7  8  2  0
  8 10  1  0
  9 10  2  0
  9 26  1  0
 11 12  1  0
 12 13  1  0
 13 14  1  0
 14 15  1  0
 15 16  1  0
 15 17  1  0
 16 18  1  0
 17 19  1  0
 18 20  1  0
 19 20  1  0
 21 22  1  0
 22 23  1  0
 22 24  2  0
 23 25  2  0
 26 27  1  0
 27 28  2  0
 27 29  1  0
 28 30  1  0
 29 31  2  0
 30 32  2  0
 30 33  1  0
 31 32  1  0
 32 34  1  0
M  END
>  <Formula>  (317) 
C24H25ClFN5O3

>  <FW>  (317) 
485.9384

>  <DSSTox_CID>  (317) 
28869

>  <NR-AR>  (317) 
0

>  <NR-ER>  (317) 
1

>  <NR-ER-LBD>  (317) 
1

>  <NR-PPAR-gamma>  (317) 
0

>  <NR-AhR>  (317) 
0

>  <SR-ARE>  (317) 
1

>  <SR-HSE>  (317) 
1

>  <SR-p53>  (317) 
1

$$$$
NCGC00254070-01
     RDKit          2D

 31 34  0  0  0  0  0  0  0  0999 V2000
    3.1406   -3.7865    0.0000 N   0  0  0  0  0  0  0  0  0  0  0  0
    3.8026   -3.2940    0.0000 C   0  0  0  0  0  0  0  0  0  0  0  0
    3.3828   -4.5696    0.0000 N   0  0  0  0  0  0  0  0  0  0  0  0
    4.4727   -3.7865    0.0000 C   0  0  0  0  0  0  0  0  0  0  0  0
    4.2144   -4.5696    0.0000 C   0  0  0  0  0  0  0  0  0  0  0  0
    3.8026   -2.4705    0.0000 C   0  0  0  0  0  0  0  0  0  0  0  0
    3.0922   -2.0668    0.0000 C   0  0  0  0  0  0  0  0  0  0  0  0
    4.5212   -2.0668    0.0000 C   0  0  0  0  0  0  0  0  0  0  0  0
    3.0922   -1.2434    0.0000 C   0  0  0  0  0  0  0  0  0  0  0  0
    4.5212   -1.2434    0.0000 C   0  0  0  0  0  0  0  0  0  0  0  0
    3.8026   -0.8235    0.0000 C   0  0  0  0  0  0  0  0  0  0  0  0
    2.3575   -3.5282    0.0000 C   0  0  0  0  0  0  0  0  0  0  0  0
    1.7358   -4.0852    0.0000 C   0  0  0  0  0  0  0  0  0  0  0  0
    2.1879   -2.7208    0.0000 C   0  0  0  0  0  0  0  0  0  0  0  0
    0.9527   -3.8269    0.0000 C   0  0  0  0  0  0  0  0  0  0  0  0
    1.3967   -2.4624    0.0000 C   0  0  0  0  0  0  0  0  0  0  0  0
    0.7831   -3.0195    0.0000 C   0  0  0  0  0  0  0  0  0  0  0  0
    3.8026    0.0000    0.0000 Br  0  0  0  0  0  0  0  0  0  0  0  0
    0.0000   -2.7612    0.0000 Cl  0  0  0  0  0  0  0  0  0  0  0  0
    1.9054   -4.8845    0.0000 Cl  0  0  0  0  0  0  0  0  0  0  0  0
    5.2559   -3.5282    0.0000 C   0  0  0  0  0  0  0  0  0  0  0  0
    5.8694   -4.0852    0.0000 C   0  0  0  0  0  0  0  0  0  0  0  0
    4.6988   -5.2317    0.0000 C   0  0  0  0  0  0  0  0  0  0  0  0
    4.3597   -5.9906    0.0000 N   0  0  0  0  0  0  0  0  0  0  0  0
    5.5223   -5.1429    0.0000 O   0  0  0  0  0  0  0  0  0  0  0  0
    4.8441   -6.6526    0.0000 N   0  0  0  0  0  0  0  0  0  0  0  0
    5.6676   -6.5638    0.0000 C   0  0  0  0  0  0  0  0  0  0  0  0
    4.5050   -7.4115    0.0000 C   0  0  0  0  0  0  0  0  0  0  0  0
    6.1440   -7.2419    0.0000 C   0  0  0  0  0  0  0  0  0  0  0  0
    4.9975   -8.0735    0.0000 C   0  0  0  0  0  0  0  0  0  0  0  0
    5.8210   -7.9847    0.0000 C   0  0  0  0  0  0  0  0  0  0  0  0
  1  2  1  0
  1  3  1  0
  1 12  1  0
  2  4  2  0
  2  6  1  0
  3  5  2  0
  4  5  1  0
  4 21  1  0
  5 23  1  0
  6  7  2  0
  6  8  1  0
  7  9  1  0
  8 10  2  0
  9 11  2  0
 10 11  1  0
 11 18  1  0
 12 13  2  0
 12 14  1  0
 13 15  1  0
 13 20  1  0
 14 16  2  0
 15 17  2  0
 16 17  1  0
 17 19  1  0
 21 22  1  0
 23 24  1  0
 23 25  2  0
 24 26  1  0
 26 27  1  0
 26 28  1  0
 27 29  1  0
 28 30  1  0
 29 31  1  0
 30 31  1  0
M  END
>  <Formula>  (318) 
C23H23BrCl2N4O

>  <FW>  (318) 
522.2649

>  <DSSTox_CID>  (318) 
27357

>  <NR-Aromatase>  (318) 
1

>  <NR-AR>  (318) 
0

>  <NR-ER>  (318) 
1

>  <NR-ER-LBD>  (318) 
0

>  <NR-AhR>  (318) 
0

>  <SR-ARE>  (318) 
1

>  <SR-ATAD5>  (318) 
0

>  <SR-HSE>  (318) 
0

>  <SR-MMP>  (318) 
1

$$$$
NCGC00183830-01
     RDKit          2D

 30 31  0  0  0  0  0  0  0  0999 V2000
    4.2796   -4.2602    0.0000 C   0  0  0  0  0  0  0  0  0  0  0  0
    3.5964   -3.8284    0.0000 C   0  0  0  0  0  0  0  0  0  0  0  0
    2.8488   -4.2602    0.0000 C   0  0  0  0  0  0  0  0  0  0  0  0
    2.8488   -5.0852    0.0000 C   0  0  0  0  0  0  0  0  0  0  0  0
    3.5964   -5.5042    0.0000 C   0  0  0  0  0  0  0  0  0  0  0  0
    4.2796   -5.0852    0.0000 C   0  0  0  0  0  0  0  0  0  0  0  0
    4.2796   -1.2439    0.0000 C   0  0  0  0  0  0  0  0  0  0  0  0
    3.5964   -0.8250    0.0000 N   0  0  0  0  0  0  0  0  0  0  0  0
    2.8488   -1.2439    0.0000 C   0  0  0  0  0  0  0  0  0  0  0  0
    2.8488   -2.0689    0.0000 C   0  0  0  0  0  0  0  0  0  0  0  0
    3.5964   -2.4749    0.0000 C   0  0  0  0  0  0  0  0  0  0  0  0
    4.2796   -2.0689    0.0000 C   0  0  0  0  0  0  0  0  0  0  0  0
    5.0272   -0.8250    0.0000 C   0  0  0  0  0  0  0  0  0  0  0  0
    5.0272   -2.4749    0.0000 C   0  0  0  0  0  0  0  0  0  0  0  0
    5.0272   -3.3322    0.0000 O   0  0  0  0  0  0  0  0  0  0  0  0
    5.7426   -2.0689    0.0000 O   0  0  0  0  0  0  0  0  0  0  0  0
    6.4452   -2.4749    0.0000 C   0  0  0  0  0  0  0  0  0  0  0  0
    5.0272   -5.5042    0.0000 Cl  0  0  0  0  0  0  0  0  0  0  0  0
    5.0272   -3.8284    0.0000 Cl  0  0  0  0  0  0  0  0  0  0  0  0
    2.1333   -2.4749    0.0000 C   0  0  0  0  0  0  0  0  0  0  0  0
    2.1333   -0.8250    0.0000 C   0  0  0  0  0  0  0  0  0  0  0  0
    1.4179   -1.2439    0.0000 O   0  0  0  0  0  0  0  0  0  0  0  0
    0.7026   -0.8250    0.0000 C   0  0  0  0  0  0  0  0  0  0  0  0
    0.7026    0.0000    0.0000 O   0  0  0  0  0  0  0  0  0  0  0  0
    0.0000   -1.2439    0.0000 N   0  0  0  0  0  0  0  0  0  0  0  0
    1.4179   -2.0689    0.0000 O   0  0  0  0  0  0  0  0  0  0  0  0
    2.1333   -3.2999    0.0000 O   0  0  0  0  0  0  0  0  0  0  0  0
    0.7026   -2.4749    0.0000 C   0  0  0  0  0  0  0  0  0  0  0  0
    0.7026   -3.2999    0.0000 C   0  0  0  0  0  0  0  0  0  0  0  0
    0.0000   -2.0689    0.0000 C   0  0  0  0  0  0  0  0  0  0  0  0
  1 19  1  0
  1  6  2  0
  1  2  1  0
  2 11  1  0
  2  3  2  0
  3  4  1  0
  4  5  2  0
  5  6  1  0
  6 18  1  0
  7 12  2  0
  7 13  1  0
  7  8  1  0
  8  9  1  0
  9 21  1  0
  9 10  2  0
 10 20  1  0
 10 11  1  0
 11 12  1  0
 12 14  1  0
 14 15  2  0
 14 16  1  0
 16 17  1  0
 20 26  1  0
 20 27  2  0
 21 22  1  0
 22 23  1  0
 23 24  2  0
 23 25  1  0
 26 28  1  0
 28 29  1  0
 28 30  1  0
M  END
>  <Formula>  (319) 
C20H22Cl2N2O6

>  <FW>  (319) 
457.3045

>  <DSSTox_CID>  (319) 
28738

>  <NR-AR>  (319) 
0

>  <NR-AR-LBD>  (319) 
1

>  <NR-ER>  (319) 
0

>  <NR-PPAR-gamma>  (319) 
1

>  <SR-ARE>  (319) 
1

>  <SR-ATAD5>  (319) 
0

>  <SR-HSE>  (319) 
1

>  <SR-p53>  (319) 
1

$$$$
NCGC00257902-01
     RDKit          2D

 26 29  0  0  0  0  0  0  0  0999 V2000
    7.0874   -0.7125    0.0000 C   0  0  0  0  0  0  0  0  0  0  0  0
    6.2624   -0.7125    0.0000 O   0  0  0  0  0  0  0  0  0  0  0  0
    5.8499   -1.4250    0.0000 C   0  0  0  0  0  0  0  0  0  0  0  0
    5.0249   -1.4250    0.0000 C   0  0  0  0  0  0  0  0  0  0  0  0
    4.6124   -0.7125    0.0000 C   0  0  0  0  0  0  0  0  0  0  0  0
    3.7874   -0.7125    0.0000 N   0  0  0  0  0  0  0  0  0  0  0  0
    3.3675    0.0000    0.0000 C   0  0  0  0  0  0  0  0  0  0  0  0
    2.5425    0.0000    0.0000 C   0  0  0  0  0  0  0  0  0  0  0  0
    2.1300   -0.7125    0.0000 C   0  0  0  0  0  0  0  0  0  0  0  0
    2.5425   -1.4250    0.0000 C   0  0  0  0  0  0  0  0  0  0  0  0
    2.1300   -2.1450    0.0000 C   0  0  0  0  0  0  0  0  0  0  0  0
    1.3050   -2.1450    0.0000 C   0  0  0  0  0  0  0  0  0  0  0  0
    0.7575   -2.7525    0.0000 O   0  0  0  0  0  0  0  0  0  0  0  0
    0.0000   -2.4224    0.0000 C   0  0  0  0  0  0  0  0  0  0  0  0
    0.0900   -1.5975    0.0000 O   0  0  0  0  0  0  0  0  0  0  0  0
    0.8925   -1.4250    0.0000 C   0  0  0  0  0  0  0  0  0  0  0  0
    1.3050   -0.7125    0.0000 C   0  0  0  0  0  0  0  0  0  0  0  0
    3.3675   -1.4250    0.0000 C   0  0  0  0  0  0  0  0  0  0  0  0
    3.7874   -2.1450    0.0000 C   0  0  0  0  0  0  0  0  0  0  0  0
    4.6124   -2.1450    0.0000 C   0  0  0  0  0  0  0  0  0  0  0  0
    5.0249   -2.8574    0.0000 C   0  0  0  0  0  0  0  0  0  0  0  0
    5.8499   -2.8574    0.0000 C   0  0  0  0  0  0  0  0  0  0  0  0
    6.2624   -2.1450    0.0000 C   0  0  0  0  0  0  0  0  0  0  0  0
    7.0874   -2.1450    0.0000 O   0  0  0  0  0  0  0  0  0  0  0  0
    7.4998   -2.8574    0.0000 C   0  0  0  0  0  0  0  0  0  0  0  0
    3.7124   -3.6824    0.0000 Cl  0  0  0  0  0  0  0  0  0  0  0  0
  1  2  1  0
  2  3  1  0
  3  4  2  0
  3 23  1  0
  4  5  1  0
  4 20  1  0
  5  6  2  0
  6  7  1  0
  6 18  1  0
  7  8  1  0
  8  9  1  0
  9 10  2  0
  9 17  1  0
 10 11  1  0
 10 18  1  0
 11 12  2  0
 12 13  1  0
 12 16  1  0
 13 14  1  0
 14 15  1  0
 15 16  1  0
 16 17  2  0
 18 19  2  0
 19 20  1  0
 20 21  2  0
 21 22  1  0
 22 23  2  0
 23 24  1  0
 24 25  1  0
M  CHG  2   6   1  26  -1
M  END
>  <Formula>  (320) 
C20H18ClNO4

>  <FW>  (320) 
371.8142 (336.3607+35.4535)

>  <DSSTox_CID>  (320) 
4602

>  <NR-AR>  (320) 
0

>  <NR-ER-LBD>  (320) 
0

>  <NR-PPAR-gamma>  (320) 
0

>  <NR-AhR>  (320) 
1

>  <SR-ARE>  (320) 
1

>  <SR-ATAD5>  (320) 
0

>  <SR-HSE>  (320) 
0

>  <SR-MMP>  (320) 
1

>  <SR-p53>  (320) 
1

$$$$
NCGC00260352-01
     RDKit          2D

 51 53  0  0  1  0  0  0  0  0999 V2000
    3.5829   -4.9658    0.0000 C   0  0  0  0  0  0  0  0  0  0  0  0
    2.8600   -4.5494    0.0000 C   0  0  0  0  0  0  0  0  0  0  0  0
    2.1529   -5.7987    0.0000 C   0  0  0  0  0  0  0  0  0  0  0  0
    4.2744   -3.7322    0.0000 C   0  0  0  0  0  0  0  0  0  0  0  0
    4.2744   -4.5494    0.0000 C   0  0  0  0  0  0  0  0  0  0  0  0
    2.1529   -4.9658    0.0000 O   0  0  0  0  0  0  0  0  0  0  0  0
    3.5829   -3.3315    0.0000 C   0  0  0  0  0  0  0  0  0  0  0  0
    3.5829   -5.7987    0.0000 C   0  0  0  0  0  0  0  0  0  0  0  0
    2.8600   -3.7322    0.0000 C   0  0  0  0  0  0  0  0  0  0  0  0
    2.1529   -2.4751    0.0000 C   0  0  0  0  0  0  0  0  0  0  0  0
    6.4116   -3.3315    0.0000 N   0  0  0  0  0  0  0  0  0  0  0  0
    5.6966   -3.7322    0.0000 C   0  0  0  0  0  0  0  0  0  0  0  0
    2.8600   -2.0822    0.0000 C   0  0  0  0  0  0  0  0  0  0  0  0
    6.4116   -2.4751    0.0000 C   0  0  0  0  0  0  0  0  0  0  0  0
    3.5829   -0.8250    0.0000 C   0  0  0  0  0  0  0  0  0  0  0  0
    4.9973   -4.9658    0.0000 C   0  0  0  0  0  0  0  0  0  0  0  0
    2.8600   -1.2415    0.0000 C   0  0  0  0  0  0  0  0  0  0  0  0
    4.9973   -3.3315    0.0000 C   0  0  0  0  0  0  0  0  0  0  0  0
    2.1529   -3.3315    0.0000 C   0  0  0  0  0  0  0  0  0  0  0  0
    5.6966   -4.5494    0.0000 C   0  0  0  0  0  0  0  0  0  0  0  0
    4.2744   -1.2415    0.0000 C   0  0  0  0  0  0  0  0  0  0  0  0
    7.1266   -2.0822    0.0000 C   0  0  0  0  0  0  0  0  0  0  0  0
    0.7307   -5.7987    0.0000 O   0  0  0  0  0  0  0  0  0  0  0  0
    1.4379   -2.0822    0.0000 O   0  0  0  0  0  0  0  0  0  0  0  0
    0.7307   -4.9658    0.0000 C   0  0  0  0  0  0  0  0  0  0  0  0
    0.5972   -2.0822    0.0000 C   0  0  0  0  0  0  0  0  0  0  0  0
    1.4379   -4.5494    0.0000 C   0  0  0  0  0  0  0  0  0  0  0  0
    1.4379   -3.7322    0.0000 C   0  0  0  0  0  0  0  0  0  0  0  0
    6.4116   -0.8250    0.0000 C   0  0  0  0  0  0  0  0  0  0  0  0
    4.2744   -6.1995    0.0000 O   0  0  0  0  0  0  0  0  0  0  0  0
    7.1266   -1.2415    0.0000 C   0  0  0  0  0  0  0  0  0  0  0  0
    5.6966   -2.0822    0.0000 O   0  0  0  0  0  0  0  0  0  0  0  0
    4.9973   -0.8250    0.0000 C   0  0  0  0  0  0  0  0  0  0  0  0
    5.6966   -1.2415    0.0000 C   0  0  0  0  0  0  0  0  0  0  0  0
    0.1807   -1.3436    0.0000 O   0  0  0  0  0  0  0  0  0  0  0  0
    3.5829   -2.4751    0.0000 O   0  0  0  0  0  0  0  0  0  0  0  0
    4.9973   -5.7987    0.0000 O   0  0  0  0  0  0  0  0  0  0  0  0
    2.1215   -0.7936    0.0000 O   0  0  0  0  0  0  0  0  0  0  0  0
    4.9973   -2.4751    0.0000 O   0  0  0  0  0  0  0  0  0  0  0  0
    4.2744   -2.0822    0.0000 O   0  0  0  0  0  0  0  0  0  0  0  0
    2.1529   -6.6237    0.0000 C   0  0  0  0  0  0  0  0  0  0  0  0
    2.8600   -2.8600    0.0000 C   0  0  0  0  0  0  0  0  0  0  0  0
    3.5044   -1.6186    0.0000 C   0  0  0  0  0  0  0  0  0  0  0  0
    3.5829    0.0000    0.0000 C   0  0  0  0  0  0  0  0  0  0  0  0
    0.7307   -3.3315    0.0000 O   0  0  0  0  0  0  0  0  0  0  0  0
    2.1686   -4.0230    0.0000 C   0  0  0  0  0  0  0  0  0  0  0  0
    7.8573   -2.5144    0.0000 C   0  0  0  0  0  0  0  0  0  0  0  0
    0.1728   -2.8051    0.0000 C   0  0  0  0  0  0  0  0  0  0  0  0
    4.9973    0.0000    0.0000 C   0  0  0  0  0  0  0  0  0  0  0  0
    0.0000   -3.7558    0.0000 C   0  0  0  0  0  0  0  0  0  0  0  0
    6.2859   -5.8616    0.0000 Na  0  0  0  0  0 15  0  0  0  0  0  0
  1  2  2  0
  1  5  1  0
  1  8  1  0
  2  6  1  0
  2  9  1  0
  3  8  1  0
  3 23  1  0
  3 41  1  6
  3  6  1  0
  4  5  2  0
  4  7  1  0
  4 18  1  0
  5 16  1  0
  7 36  1  0
  7  9  2  0
  8 30  2  0
  9 42  1  0
 10 19  1  0
 10 13  1  0
 10 24  1  1
 11 12  1  0
 11 14  1  0
 12 20  1  0
 12 18  2  0
 13 17  1  0
 13 43  1  1
 14 22  1  0
 14 32  2  0
 15 17  1  0
 15 21  1  0
 15 44  1  6
 16 20  2  0
 16 37  1  0
 17 38  1  6
 18 39  1  0
 19 28  1  0
 19 46  1  6
 21 40  1  6
 21 33  1  0
 22 31  2  0
 22 47  1  0
 23 25  1  0
 24 26  1  0
 25 27  2  0
 26 35  2  0
 26 48  1  0
 27 28  1  0
 28 45  1  6
 29 31  1  0
 29 34  2  0
 33 34  1  0
 33 49  1  1
 45 50  1  0
M  CHG  2  37  -1  51   1
M  END
>  <Formula>  (321) 
C37H46NNaO12

>  <FW>  (321) 
719.7504 (696.7612+22.9892)

>  <DSSTox_CID>  (321) 
20208

>  <NR-AR>  (321) 
0

>  <NR-AR-LBD>  (321) 
0

>  <NR-ER>  (321) 
0

>  <NR-ER-LBD>  (321) 
0

>  <NR-AhR>  (321) 
0

>  <SR-ARE>  (321) 
1

>  <SR-ATAD5>  (321) 
0

>  <SR-HSE>  (321) 
0

>  <SR-p53>  (321) 
0

$$$$
NCGC00255032-01
     RDKit          2D

 27 29  0  0  0  0  0  0  0  0999 V2000
    4.6294   -1.2243    0.0000 C   0  0  0  0  0  0  0  0  0  0  0  0
    4.7660   -2.0441    0.0000 C   0  0  0  0  0  0  0  0  0  0  0  0
    3.8517   -0.9458    0.0000 C   0  0  0  0  0  0  0  0  0  0  0  0
    4.1407   -2.5695    0.0000 C   0  0  0  0  0  0  0  0  0  0  0  0
    3.2159   -1.4871    0.0000 C   0  0  0  0  0  0  0  0  0  0  0  0
    3.3630   -2.2910    0.0000 C   0  0  0  0  0  0  0  0  0  0  0  0
    1.2348   -1.6237    0.0000 C   0  0  0  0  0  0  0  0  0  0  0  0
    1.6500   -0.9091    0.0000 C   0  0  0  0  0  0  0  0  0  0  0  0
    0.4098   -1.6237    0.0000 C   0  0  0  0  0  0  0  0  0  0  0  0
    1.2348   -0.1997    0.0000 C   0  0  0  0  0  0  0  0  0  0  0  0
    0.0000   -0.9091    0.0000 C   0  0  0  0  0  0  0  0  0  0  0  0
    0.4098   -0.1997    0.0000 C   0  0  0  0  0  0  0  0  0  0  0  0
    2.0021   -1.5816    0.0000 C   0  0  0  0  0  0  0  0  0  0  0  0
    2.0021   -0.2417    0.0000 O   0  0  0  0  0  0  0  0  0  0  0  0
    2.7850   -0.4992    0.0000 C   0  0  0  0  0  0  0  0  0  0  0  0
    2.7850   -1.3242    0.0000 C   0  0  0  0  0  0  0  0  0  0  0  0
    3.4419    0.0000    0.0000 O   0  0  0  0  0  0  0  0  0  0  0  0
    1.8392   -2.2806    0.0000 O   0  0  0  0  0  0  0  0  0  0  0  0
    2.3909   -2.9059    0.0000 C   0  0  0  0  0  0  0  0  0  0  0  0
    3.1948   -2.7482    0.0000 O   0  0  0  0  0  0  0  0  0  0  0  0
    2.1176   -3.6835    0.0000 C   0  0  0  0  0  0  0  0  0  0  0  0
    5.2547   -0.6989    0.0000 Cl  0  0  0  0  0  0  0  0  0  0  0  0
    4.2878   -3.3840    0.0000 Cl  0  0  0  0  0  0  0  0  0  0  0  0
    1.3452   -3.4261    0.0000 C   0  0  0  0  0  0  0  0  0  0  0  0
    1.8601   -4.4717    0.0000 C   0  0  0  0  0  0  0  0  0  0  0  0
    2.9059   -3.9515    0.0000 C   0  0  0  0  0  0  0  0  0  0  0  0
    1.0457   -4.6294    0.0000 C   0  0  0  0  0  0  0  0  0  0  0  0
  1  2  2  0
  1  3  1  0
  1 22  1  0
  2  4  1  0
  3  5  2  0
  4  6  2  0
  4 23  1  0
  5  6  1  0
  5 16  1  0
  7  8  1  0
  7  9  1  0
  8 10  1  0
  8 13  1  0
  8 14  1  0
  9 11  1  0
 10 12  1  0
 11 12  1  0
 13 16  2  0
 13 18  1  0
 14 15  1  0
 15 16  1  0
 15 17  2  0
 18 19  1  0
 19 20  2  0
 19 21  1  0
 21 24  1  0
 21 25  1  0
 21 26  1  0
 25 27  1  0
M  END
>  <Formula>  (322) 
C21H24Cl2O4

>  <FW>  (322) 
411.3189

>  <DSSTox_CID>  (322) 
14928

>  <NR-AR>  (322) 
0

>  <NR-ER>  (322) 
1

>  <NR-ER-LBD>  (322) 
0

>  <NR-PPAR-gamma>  (322) 
1

>  <SR-ARE>  (322) 
1

>  <SR-ATAD5>  (322) 
0

>  <SR-HSE>  (322) 
0

>  <SR-MMP>  (322) 
1

>  <SR-p53>  (322) 
1

$$$$
NCGC00255296-01
     RDKit          2D

 31 34  0  0  0  0  0  0  0  0999 V2000
    5.7916   -3.5774    0.0000 O   0  0  0  0  0  0  0  0  0  0  0  0
    6.1997   -2.8654    0.0000 C   0  0  0  0  0  0  0  0  0  0  0  0
    5.7916   -2.1447    0.0000 C   0  0  0  0  0  0  0  0  0  0  0  0
    6.1997   -1.4327    0.0000 C   0  0  0  0  0  0  0  0  0  0  0  0
    5.7916   -0.7120    0.0000 C   0  0  0  0  0  0  0  0  0  0  0  0
    6.1997    0.0000    0.0000 O   0  0  0  0  0  0  0  0  0  0  0  0
    4.9580   -0.7120    0.0000 C   0  0  0  0  0  0  0  0  0  0  0  0
    4.5499   -1.4327    0.0000 C   0  0  0  0  0  0  0  0  0  0  0  0
    7.0333   -1.4327    0.0000 C   0  0  0  0  0  0  0  0  0  0  0  0
    7.4413   -0.7120    0.0000 O   0  0  0  0  0  0  0  0  0  0  0  0
    7.4413   -2.1447    0.0000 C   0  0  0  0  0  0  0  0  0  0  0  0
    8.2662   -2.1447    0.0000 C   0  0  0  0  0  0  0  0  0  0  0  0
    8.6830   -1.4327    0.0000 O   0  0  0  0  0  0  0  0  0  0  0  0
    8.6830   -2.8654    0.0000 C   0  0  0  0  0  0  0  0  0  0  0  0
    8.2662   -3.5774    0.0000 C   0  0  0  0  0  0  0  0  0  0  0  0
    7.4413   -3.5774    0.0000 C   0  0  0  0  0  0  0  0  0  0  0  0
    7.0333   -4.2981    0.0000 N   0  0  0  0  0  0  0  0  0  0  0  0
    6.1997   -4.2981    0.0000 O   0  0  0  0  0  0  0  0  0  0  0  0
    7.4413   -5.0101    0.0000 O   0  0  0  0  0  0  0  0  0  0  0  0
    4.9580   -2.1447    0.0000 C   0  0  0  0  0  0  0  0  0  0  0  0
    4.5499   -2.8654    0.0000 N   0  0  0  0  0  0  0  0  0  0  0  0
    3.7250   -2.8654    0.0000 C   0  0  0  0  0  0  0  0  0  0  0  0
    3.3083   -3.5774    0.0000 C   0  0  0  0  0  0  0  0  0  0  0  0
    2.4833   -3.5774    0.0000 C   0  0  0  0  0  0  0  0  0  0  0  0
    2.0666   -2.8654    0.0000 C   0  0  0  0  0  0  0  0  0  0  0  0
    2.4833   -2.1447    0.0000 C   0  0  0  0  0  0  0  0  0  0  0  0
    1.2417   -2.8654    0.0000 C   0  0  0  0  0  0  0  0  0  0  0  0
    0.8249   -3.5774    0.0000 C   0  0  0  0  0  0  0  0  0  0  0  0
    0.0000   -3.5774    0.0000 O   0  0  0  0  0  0  0  0  0  0  0  0
    3.3083   -2.1447    0.0000 C   0  0  0  0  0  0  0  0  0  0  0  0
    7.0333   -2.8654    0.0000 C   0  0  0  0  0  0  0  0  0  0  0  0
  1  2  2  0
  2  3  1  0
  2 31  1  0
  3  4  2  0
  3 20  1  0
  4  5  1  0
  4  9  1  0
  5  6  1  0
  5  7  2  0
  7  8  1  0
  8 20  2  0
  9 10  2  0
  9 11  1  0
 11 12  1  0
 11 31  2  0
 12 13  1  0
 12 14  2  0
 14 15  1  0
 15 16  2  0
 16 17  1  0
 16 31  1  0
 17 18  1  0
 17 19  2  0
 20 21  1  0
 21 22  1  0
 22 23  2  0
 22 30  1  0
 23 24  1  0
 24 25  2  0
 25 26  1  0
 25 27  1  0
 26 30  2  0
 27 28  1  0
 28 29  1  0
M  CHG  2  17   1  18  -1
M  END
>  <Formula>  (323) 
C22H16N2O7

>  <FW>  (323) 
420.3716

>  <DSSTox_CID>  (323) 
5209

>  <NR-AR>  (323) 
0

>  <NR-ER>  (323) 
0

>  <NR-ER-LBD>  (323) 
0

>  <NR-AhR>  (323) 
1

>  <SR-ARE>  (323) 
1

>  <SR-ATAD5>  (323) 
0

>  <SR-HSE>  (323) 
0

>  <SR-MMP>  (323) 
1

>  <SR-p53>  (323) 
0

$$$$
NCGC00254359-01
     RDKit          2D

 29 31  0  0  1  0  0  0  0  0999 V2000
    3.5234   -2.5766    0.0000 C   0  0  0  0  0  0  0  0  0  0  0  0
    4.3281   -2.4008    0.0000 C   0  0  0  0  0  0  0  0  0  0  0  0
    2.8877   -2.0491    0.0000 C   0  0  0  0  0  0  0  0  0  0  0  0
    2.1776   -2.4616    0.0000 C   0  0  0  0  0  0  0  0  0  0  0  0
    4.9773   -2.8877    0.0000 C   0  0  0  0  0  0  0  0  0  0  0  0
    1.4472   -2.0491    0.0000 C   0  0  0  0  0  0  0  0  0  0  0  0
    3.1785   -3.3137    0.0000 C   0  0  0  0  0  0  0  0  0  0  0  0
    2.8877   -1.2240    0.0000 C   0  0  0  0  0  0  0  0  0  0  0  0
    4.9773   -3.7127    0.0000 C   0  0  0  0  0  0  0  0  0  0  0  0
    4.6730   -1.6501    0.0000 C   0  0  0  0  0  0  0  0  0  0  0  0
    1.4472   -1.2376    0.0000 C   0  0  0  0  0  0  0  0  0  0  0  0
    3.5234   -4.0508    0.0000 C   0  0  0  0  0  0  0  0  0  0  0  0
    4.3484   -4.2267    0.0000 C   0  0  0  0  0  0  0  0  0  0  0  0
    5.5251   -1.6501    0.0000 N   0  0  0  0  0  0  0  0  0  0  0  0
    2.1776   -0.8251    0.0000 C   0  0  0  0  0  0  0  0  0  0  0  0
    5.9241   -0.9400    0.0000 C   0  0  0  0  0  0  0  0  0  0  0  0
    3.5234   -0.7236    0.0000 C   0  0  0  0  0  0  0  0  0  0  0  0
    5.7280   -4.1117    0.0000 O   0  0  0  0  0  0  0  0  0  0  0  0
    4.3281   -0.9129    0.0000 C   0  0  0  0  0  0  0  0  0  0  0  0
    5.5116   -0.2097    0.0000 O   0  0  0  0  0  0  0  0  0  0  0  0
    2.1776   -3.2867    0.0000 O   0  0  0  0  0  0  0  0  0  0  0  0
    0.7101   -2.4481    0.0000 O   0  0  0  0  0  0  0  0  0  0  0  0
    0.7101   -0.8386    0.0000 O   0  0  0  0  0  0  0  0  0  0  0  0
    4.5648   -5.0247    0.0000 O   0  0  0  0  0  0  0  0  0  0  0  0
    6.7627   -0.9400    0.0000 C   0  0  0  0  0  0  0  0  0  0  0  0
    1.4405   -3.6992    0.0000 C   0  0  0  0  0  0  0  0  0  0  0  0
    0.0000   -2.0017    0.0000 C   0  0  0  0  0  0  0  0  0  0  0  0
    0.7101    0.0000    0.0000 C   0  0  0  0  0  0  0  0  0  0  0  0
    5.3155   -5.0247    0.0000 C   0  0  0  0  0  0  0  0  0  0  0  0
  1  2  1  0
  1  3  1  0
  1  7  2  0
  2  5  2  0
  2 10  1  0
  3  4  2  0
  3  8  1  0
  4  6  1  0
  4 21  1  0
  5  9  1  0
  6 22  1  0
  6 11  2  0
  7 12  1  0
  8 15  2  0
  8 17  1  0
  9 18  2  0
  9 13  1  0
 10 14  1  6
 10 19  1  0
 11 15  1  0
 11 23  1  0
 12 13  2  0
 13 24  1  0
 14 16  1  0
 16 20  2  0
 16 25  1  0
 17 19  1  0
 21 26  1  0
 22 27  1  0
 23 28  1  0
 24 29  1  0
M  END
>  <Formula>  (324) 
C22H25NO6

>  <FW>  (324) 
399.4370

>  <DSSTox_CID>  (324) 
4845

>  <NR-AR>  (324) 
0

>  <NR-ER>  (324) 
0

>  <NR-ER-LBD>  (324) 
0

>  <NR-AhR>  (324) 
0

>  <SR-ARE>  (324) 
1

>  <SR-ATAD5>  (324) 
1

>  <SR-HSE>  (324) 
0

>  <SR-MMP>  (324) 
1

>  <SR-p53>  (324) 
0

$$$$
NCGC00257298-01
     RDKit          2D

 39 42  0  0  0  0  0  0  0  0999 V2000
    1.6205   -1.1838    0.0000 C   0  0  0  0  0  0  0  0  0  0  0  0
    1.3447   -1.9767    0.0000 C   0  0  0  0  0  0  0  0  0  0  0  0
    2.6778   -1.9883    0.0000 N   0  0  0  0  0  0  0  0  0  0  0  0
    2.4365   -1.1952    0.0000 C   0  0  0  0  0  0  0  0  0  0  0  0
    1.9997   -2.4595    0.0000 C   0  0  0  0  0  0  0  0  0  0  0  0
    1.0688   -0.5746    0.0000 C   0  0  0  0  0  0  0  0  0  0  0  0
    0.5402   -2.1262    0.0000 C   0  0  0  0  0  0  0  0  0  0  0  0
    0.0000   -1.5170    0.0000 C   0  0  0  0  0  0  0  0  0  0  0  0
    0.2643   -0.7355    0.0000 C   0  0  0  0  0  0  0  0  0  0  0  0
    1.9997   -3.2870    0.0000 O   0  0  0  0  0  0  0  0  0  0  0  0
    2.9421   -0.5402    0.0000 O   0  0  0  0  0  0  0  0  0  0  0  0
    3.4593   -2.2640    0.0000 C   0  0  0  0  0  0  0  0  0  0  0  0
    4.0799   -1.7124    0.0000 C   0  0  0  0  0  0  0  0  0  0  0  0
    5.9188   -2.7698    0.0000 O   0  0  0  0  0  0  0  0  0  0  0  0
    5.1028   -2.7698    0.0000 N   0  0  0  0  0  0  0  0  0  0  0  0
    4.8614   -1.9767    0.0000 C   0  0  0  0  0  0  0  0  0  0  0  0
    5.5395   -1.5055    0.0000 N   0  0  0  0  0  0  0  0  0  0  0  0
    6.1831   -1.9883    0.0000 C   0  0  0  0  0  0  0  0  0  0  0  0
    7.6312   -2.2411    0.0000 S   0  0  0  0  0  0  0  0  0  0  0  0
    8.3092   -1.7699    0.0000 C   0  0  0  0  0  0  0  0  0  0  0  0
    6.9761   -1.7584    0.0000 C   0  0  0  0  0  0  0  0  0  0  0  0
    7.2404   -0.9769    0.0000 C   0  0  0  0  0  0  0  0  0  0  0  0
    8.0564   -0.9884    0.0000 C   0  0  0  0  0  0  0  0  0  0  0  0
    9.0907   -2.0457    0.0000 C   0  0  0  0  0  0  0  0  0  0  0  0
    9.7113   -1.5055    0.0000 N   0  0  0  0  0  0  0  0  0  0  0  0
   10.4584   -1.8273    0.0000 C   0  0  0  0  0  0  0  0  0  0  0  0
   11.1824   -1.4366    0.0000 C   0  0  0  0  0  0  0  0  0  0  0  0
   11.3319   -0.6206    0.0000 C   0  0  0  0  0  0  0  0  0  0  0  0
   10.7917    0.0000    0.0000 C   0  0  0  0  0  0  0  0  0  0  0  0
    9.9642   -0.0345    0.0000 C   0  0  0  0  0  0  0  0  0  0  0  0
    9.4930   -0.7125    0.0000 C   0  0  0  0  0  0  0  0  0  0  0  0
    8.5851   -3.9075    0.0000 C   0  0  0  0  0  0  0  0  0  0  0  0
    9.3436   -4.3442    0.0000 C   0  0  0  0  0  0  0  0  0  0  0  0
   10.0446   -3.9075    0.0000 C   0  0  0  0  0  0  0  0  0  0  0  0
   10.7457   -4.3442    0.0000 C   0  0  0  0  0  0  0  0  0  0  0  0
    8.5851   -3.1145    0.0000 O   0  0  0  0  0  0  0  0  0  0  0  0
    7.8840   -4.3442    0.0000 O   0  0  0  0  0  0  0  0  0  0  0  0
   10.7457   -5.1373    0.0000 O   0  0  0  0  0  0  0  0  0  0  0  0
   11.4928   -3.9075    0.0000 O   0  0  0  0  0  0  0  0  0  0  0  0
  1  2  2  0
  1  4  1  0
  1  6  1  0
  2  5  1  0
  2  7  1  0
  3  4  1  0
  3  5  1  0
  3 12  1  0
  4 11  2  0
  5 10  2  0
  6  9  2  0
  7  8  2  0
  8  9  1  0
 12 13  1  0
 13 16  1  0
 14 15  1  0
 14 18  1  0
 15 16  2  0
 16 17  1  0
 17 18  2  0
 18 21  1  0
 19 20  1  0
 19 21  1  0
 20 23  2  0
 20 24  1  0
 21 22  2  0
 22 23  1  0
 24 25  1  0
 25 26  1  0
 25 31  1  0
 26 27  1  0
 27 28  1  0
 28 29  1  0
 29 30  1  0
 30 31  1  0
 32 33  1  0
 32 37  1  0
 32 36  2  0
 33 34  2  0
 34 35  1  0
 35 39  1  0
 35 38  2  0
M  END
>  <Formula>  (325) 
C27H28N4O7S

>  <FW>  (325) 
552.5988 (436.5267+116.0722)

>  <DSSTox_CID>  (325) 
28146

>  <NR-Aromatase>  (325) 
0

>  <NR-AR>  (325) 
0

>  <NR-AR-LBD>  (325) 
0

>  <NR-ER-LBD>  (325) 
0

>  <NR-PPAR-gamma>  (325) 
0

>  <NR-AhR>  (325) 
1

>  <SR-ARE>  (325) 
1

>  <SR-ATAD5>  (325) 
0

>  <SR-HSE>  (325) 
0

>  <SR-p53>  (325) 
0

$$$$
NCGC00182996-01
     RDKit          2D

 32 35  0  0  0  0  0  0  0  0999 V2000
    2.9369   -1.2787    0.0000 N   0  0  0  0  0  0  0  0  0  0  0  0
    2.6894   -0.4867    0.0000 C   0  0  0  0  0  0  0  0  0  0  0  0
    3.3494    0.0000    0.0000 C   0  0  0  0  0  0  0  0  0  0  0  0
    4.0012   -0.4867    0.0000 C   0  0  0  0  0  0  0  0  0  0  0  0
    3.7619   -1.2787    0.0000 C   0  0  0  0  0  0  0  0  0  0  0  0
    2.4502   -1.9387    0.0000 C   0  0  0  0  0  0  0  0  0  0  0  0
    1.6582   -1.9387    0.0000 C   0  0  0  0  0  0  0  0  0  0  0  0
    1.2045   -1.2127    0.0000 O   0  0  0  0  0  0  0  0  0  0  0  0
    1.2045   -2.6234    0.0000 O   0  0  0  0  0  0  0  0  0  0  0  0
    0.4207   -2.6234    0.0000 C   0  0  0  0  0  0  0  0  0  0  0  0
    0.0000   -3.3576    0.0000 C   0  0  0  0  0  0  0  0  0  0  0  0
    5.0736   -1.9387    0.0000 S   0  0  0  0  0  0  0  0  0  0  0  0
    5.3128   -2.7224    0.0000 C   0  0  0  0  0  0  0  0  0  0  0  0
    4.6611   -3.1762    0.0000 C   0  0  0  0  0  0  0  0  0  0  0  0
    4.0012   -2.7224    0.0000 N   0  0  0  0  0  0  0  0  0  0  0  0
    4.2486   -1.9387    0.0000 C   0  0  0  0  0  0  0  0  0  0  0  0
    4.6611   -4.0012    0.0000 C   0  0  0  0  0  0  0  0  0  0  0  0
    5.3871   -4.4219    0.0000 C   0  0  0  0  0  0  0  0  0  0  0  0
    5.3871   -5.2469    0.0000 C   0  0  0  0  0  0  0  0  0  0  0  0
    4.6611   -5.6593    0.0000 C   0  0  0  0  0  0  0  0  0  0  0  0
    3.9269   -5.2469    0.0000 C   0  0  0  0  0  0  0  0  0  0  0  0
    3.9269   -4.4219    0.0000 C   0  0  0  0  0  0  0  0  0  0  0  0
    4.6611   -6.4843    0.0000 O   0  0  0  0  0  0  0  0  0  0  0  0
    5.3871   -6.9051    0.0000 C   0  0  0  0  0  0  0  0  0  0  0  0
    6.1049   -2.9781    0.0000 C   0  0  0  0  0  0  0  0  0  0  0  0
    6.8061   -2.5574    0.0000 C   0  0  0  0  0  0  0  0  0  0  0  0
    7.5238   -2.9781    0.0000 C   0  0  0  0  0  0  0  0  0  0  0  0
    7.5238   -3.8031    0.0000 C   0  0  0  0  0  0  0  0  0  0  0  0
    6.8061   -4.2156    0.0000 C   0  0  0  0  0  0  0  0  0  0  0  0
    6.1049   -3.8031    0.0000 C   0  0  0  0  0  0  0  0  0  0  0  0
    8.2498   -4.2156    0.0000 O   0  0  0  0  0  0  0  0  0  0  0  0
    8.2498   -5.0406    0.0000 C   0  0  0  0  0  0  0  0  0  0  0  0
  1  2  1  0
  1  5  1  0
  1  6  1  0
  2  3  2  0
  3  4  1  0
  4  5  2  0
  5 16  1  0
  6  7  1  0
  7  8  2  0
  7  9  1  0
  9 10  1  0
 10 11  1  0
 12 16  1  0
 12 13  1  0
 13 25  1  0
 13 14  2  0
 14 15  1  0
 14 17  1  0
 15 16  2  0
 17 18  2  0
 17 22  1  0
 18 19  1  0
 19 20  2  0
 20 21  1  0
 20 23  1  0
 21 22  2  0
 23 24  1  0
 25 26  2  0
 25 30  1  0
 26 27  1  0
 27 28  2  0
 28 29  1  0
 28 31  1  0
 29 30  2  0
 31 32  1  0
M  END
>  <Formula>  (326) 
C25H24N2O4S

>  <FW>  (326) 
448.5341

>  <DSSTox_CID>  (326) 
28730

>  <NR-Aromatase>  (326) 
0

>  <NR-AR>  (326) 
0

>  <NR-AR-LBD>  (326) 
0

>  <NR-ER>  (326) 
0

>  <NR-ER-LBD>  (326) 
0

>  <NR-PPAR-gamma>  (326) 
0

>  <NR-AhR>  (326) 
0

>  <SR-ARE>  (326) 
1

>  <SR-ATAD5>  (326) 
0

>  <SR-MMP>  (326) 
0

$$$$
NCGC00257268-01
     RDKit          2D

 48 53  0  0  1  0  0  0  0  0999 V2000
    2.1450   -4.1964    0.0000 C   0  0  0  0  0  0  0  0  0  0  0  0
    2.1450   -5.8422    0.0000 C   0  0  0  0  0  0  0  0  0  0  0  0
    1.9344   -6.6300    0.0000 C   0  0  0  0  0  0  0  0  0  0  0  0
    3.5646   -1.7316    0.0000 N   0  0  0  0  0  0  0  0  0  0  0  0
    1.4196   -5.4210    0.0000 C   0  0  0  0  0  0  0  0  0  0  0  0
    1.4196   -4.6098    0.0000 C   0  0  0  0  0  0  0  0  0  0  0  0
    2.8548   -4.6098    0.0000 C   0  0  0  0  0  0  0  0  0  0  0  0
    2.1450   -3.3696    0.0000 C   0  0  0  0  0  0  0  0  0  0  0  0
    0.9282   -6.6300    0.0000 N   0  0  0  0  0  0  0  0  0  0  0  0
    2.8548   -2.9640    0.0000 C   0  0  0  0  0  0  0  0  0  0  0  0
    3.5646   -4.1964    0.0000 N   0  0  0  0  0  0  0  0  0  0  0  0
    2.8548   -2.1372    0.0000 C   0  0  0  0  0  0  0  0  0  0  0  0
    0.7254   -5.8422    0.0000 C   0  0  0  0  0  0  0  0  0  0  0  0
    2.8548   -5.4210    0.0000 C   0  0  0  0  0  0  0  0  0  0  0  0
    3.5646   -3.3696    0.0000 C   0  0  0  0  0  0  0  0  0  0  0  0
    2.1450   -1.7316    0.0000 O   0  0  0  0  0  0  0  0  0  0  0  0
    2.4804   -7.2384    0.0000 Br  0  0  0  0  0  0  0  0  0  0  0  0
    0.7254   -4.1964    0.0000 C   0  0  0  0  0  0  0  0  0  0  0  0
    4.2744   -4.6098    0.0000 C   0  0  0  0  0  0  0  0  0  0  0  0
    0.0000   -5.4210    0.0000 C   0  0  0  0  0  0  0  0  0  0  0  0
    0.0000   -4.6098    0.0000 C   0  0  0  0  0  0  0  0  0  0  0  0
    5.6550   -2.1372    0.0000 N   0  0  0  0  0  0  0  0  0  0  0  0
    5.6550   -1.3104    0.0000 C   0  0  0  0  0  0  0  0  0  0  0  0
    4.3914   -1.7238    0.0000 C   0  0  0  0  0  0  0  0  0  0  0  0
    4.8672   -2.3946    0.0000 C   0  0  0  0  0  0  0  0  0  0  0  0
    4.8672   -1.0530    0.0000 O   0  0  0  0  0  0  0  0  0  0  0  0
    6.3804   -2.5506    0.0000 C   0  0  0  0  0  0  0  0  0  0  0  0
    7.0746   -2.1372    0.0000 C   0  0  0  0  0  0  0  0  0  0  0  0
    7.0746   -1.3104    0.0000 N   0  0  0  0  0  0  0  0  0  0  0  0
    6.3804   -0.9048    0.0000 C   0  0  0  0  0  0  0  0  0  0  0  0
    4.6254   -3.1746    0.0000 O   0  0  0  0  0  0  0  0  0  0  0  0
    7.8000   -2.5506    0.0000 O   0  0  0  0  0  0  0  0  0  0  0  0
    5.6940   -0.4602    0.0000 O   0  0  0  0  0  0  0  0  0  0  0  0
    6.3804   -3.3618    0.0000 C   0  0  0  0  0  0  0  0  0  0  0  0
    3.9702   -1.0218    0.0000 C   0  0  0  0  0  0  0  0  0  0  0  0
    7.6986   -0.7644    0.0000 C   0  0  0  0  0  0  0  0  0  0  0  0
    6.5286   -0.0936    0.0000 C   0  0  0  0  0  0  0  0  0  0  0  0
    7.3554    0.0000    0.0000 C   0  0  0  0  0  0  0  0  0  0  0  0
    7.0746   -3.7830    0.0000 C   0  0  0  0  0  0  0  0  0  0  0  0
    4.3680   -0.2886    0.0000 C   0  0  0  0  0  0  0  0  0  0  0  0
    3.1278   -1.0296    0.0000 C   0  0  0  0  0  0  0  0  0  0  0  0
    7.0746   -4.6098    0.0000 C   0  0  0  0  0  0  0  0  0  0  0  0
    7.8000   -3.3618    0.0000 C   0  0  0  0  0  0  0  0  0  0  0  0
    5.1012   -6.1932    0.0000 C   0  0  0  0  0  0  0  0  0  0  0  0
    5.9280   -6.1932    0.0000 S   0  0  0  0  0  0  0  0  0  0  0  0
    5.9280   -5.3664    0.0000 O   0  0  0  0  0  0  0  0  0  0  0  0
    5.9280   -7.0200    0.0000 O   0  0  0  0  0  0  0  0  0  0  0  0
    6.7548   -6.1932    0.0000 O   0  0  0  0  0  0  0  0  0  0  0  0
  1  8  2  0
  1  6  1  0
  1  7  1  0
  2 14  1  0
  2  3  2  0
  2  5  1  0
  3 17  1  0
  3  9  1  0
  4 12  1  0
 24  4  1  6
  5  6  2  0
  5 13  1  0
  6 18  1  0
  7 11  1  0
  7 14  1  6
  8 10  1  0
  9 13  1  0
 10 12  1  1
 10 15  1  0
 11 15  1  0
 11 19  1  0
 12 16  2  0
 13 20  2  0
 18 21  2  0
 20 21  1  0
 22 23  1  0
 22 25  1  0
 22 27  1  0
 23 26  1  0
 23 30  1  0
 23 33  1  6
 24 25  1  0
 24 35  1  0
 24 26  1  0
 25 31  2  0
 27 28  1  0
 27 34  1  6
 28 29  1  0
 28 32  2  0
 29 36  1  0
 29 30  1  0
 30 37  1  6
 34 39  1  0
 35 40  1  0
 35 41  1  0
 36 38  1  0
 37 38  1  0
 39 42  1  0
 39 43  1  0
 44 45  1  0
 45 46  2  0
 45 47  2  0
 45 48  1  0
M  END
>  <Formula>  (327) 
C33H44BrN5O8S

>  <FW>  (327) 
750.7002 (654.5945+96.1057)

>  <DSSTox_CID>  (327) 
197

>  <NR-Aromatase>  (327) 
1

>  <NR-AR>  (327) 
0

>  <NR-AR-LBD>  (327) 
0

>  <NR-ER>  (327) 
0

>  <NR-ER-LBD>  (327) 
0

>  <NR-AhR>  (327) 
0

>  <SR-ARE>  (327) 
1

>  <SR-HSE>  (327) 
0

>  <SR-MMP>  (327) 
1

>  <SR-p53>  (327) 
0

$$$$
NCGC00255545-01
     RDKit          2D

 31 32  0  0  0  0  0  0  0  0999 V2000
    3.5953   -2.1737    0.0000 C   0  0  0  0  0  0  0  0  0  0  0  0
    3.5953   -3.0002    0.0000 C   0  0  0  0  0  0  0  0  0  0  0  0
    2.8845   -1.7604    0.0000 C   0  0  0  0  0  0  0  0  0  0  0  0
    2.8845   -3.4052    0.0000 C   0  0  0  0  0  0  0  0  0  0  0  0
    2.1737   -2.1737    0.0000 C   0  0  0  0  0  0  0  0  0  0  0  0
    2.1737   -3.0002    0.0000 C   0  0  0  0  0  0  0  0  0  0  0  0
    4.3143   -1.7604    0.0000 N   0  0  0  0  0  0  0  0  0  0  0  0
    5.0251   -2.1737    0.0000 C   0  0  0  0  0  0  0  0  0  0  0  0
    4.3143   -3.4052    0.0000 C   0  0  0  0  0  0  0  0  0  0  0  0
    5.0251   -3.0002    0.0000 C   0  0  0  0  0  0  0  0  0  0  0  0
    5.7359   -1.7604    0.0000 C   0  0  0  0  0  0  0  0  0  0  0  0
    5.8185   -0.9340    0.0000 C   0  0  0  0  0  0  0  0  0  0  0  0
    6.4798   -2.0910    0.0000 C   0  0  0  0  0  0  0  0  0  0  0  0
    6.6202   -0.7686    0.0000 C   0  0  0  0  0  0  0  0  0  0  0  0
    7.0335   -1.4794    0.0000 C   0  0  0  0  0  0  0  0  0  0  0  0
    7.0335   -0.0496    0.0000 C   0  0  0  0  0  0  0  0  0  0  0  0
    7.8600   -0.0496    0.0000 C   0  0  0  0  0  0  0  0  0  0  0  0
    7.8600   -1.4794    0.0000 C   0  0  0  0  0  0  0  0  0  0  0  0
    8.2650   -0.7686    0.0000 C   0  0  0  0  0  0  0  0  0  0  0  0
    5.2152   -0.3884    0.0000 O   0  0  0  0  0  0  0  0  0  0  0  0
    6.6616   -2.9010    0.0000 O   0  0  0  0  0  0  0  0  0  0  0  0
    2.8845   -0.9340    0.0000 S   0  0  0  0  0  0  0  0  0  0  0  0
    2.8845   -0.1157    0.0000 O   0  0  0  0  0  0  0  0  0  0  0  0
    2.0580   -0.9340    0.0000 O   0  0  0  0  0  0  0  0  0  0  0  0
    3.7027   -0.9340    0.0000 O   0  0  0  0  0  0  0  0  0  0  0  0
    1.4546   -3.4052    0.0000 S   0  0  0  0  0  0  0  0  0  0  0  0
    0.7439   -3.8184    0.0000 O   0  0  0  0  0  0  0  0  0  0  0  0
    1.8762   -4.1159    0.0000 O   0  0  0  0  0  0  0  0  0  0  0  0
    1.0497   -2.6861    0.0000 O   0  0  0  0  0  0  0  0  0  0  0  0
    0.0000   -3.7771    0.0000 Na  0  0  0  0  0 15  0  0  0  0  0  0
    2.1737    0.0000    0.0000 Na  0  0  0  0  0 15  0  0  0  0  0  0
  1  3  2  0
  1  7  1  0
  1  2  1  0
  2  4  2  0
  2  9  1  0
  3  5  1  0
  3 22  1  0
  4  6  1  0
  5  6  2  0
  6 26  1  0
  7  8  2  0
  8 10  1  0
  8 11  1  0
  9 10  2  0
 11 12  1  0
 11 13  1  0
 12 14  1  0
 12 20  2  0
 13 15  1  0
 13 21  2  0
 14 16  1  0
 14 15  2  0
 15 18  1  0
 16 17  2  0
 17 19  1  0
 18 19  2  0
 22 23  1  0
 22 24  2  0
 22 25  2  0
 26 27  1  0
 26 28  2  0
 26 29  2  0
M  CHG  4  23  -1  27  -1  30   1  31   1
M  END
>  <Formula>  (328) 
C18H9NNa2O8S2

>  <FW>  (328) 
477.3755 (431.3971+22.9892+22.9892)

>  <DSSTox_CID>  (328) 
21721

>  <NR-Aromatase>  (328) 
0

>  <NR-AR>  (328) 
0

>  <NR-AR-LBD>  (328) 
0

>  <NR-ER>  (328) 
0

>  <NR-ER-LBD>  (328) 
0

>  <NR-PPAR-gamma>  (328) 
0

>  <SR-ARE>  (328) 
1

>  <SR-ATAD5>  (328) 
0

>  <SR-HSE>  (328) 
0

>  <SR-p53>  (328) 
0

$$$$
NCGC00254231-01
     RDKit          2D

 39 43  0  0  0  0  0  0  0  0999 V2000
    6.7179   -4.9945    0.0000 C   0  0  0  0  0  0  0  0  0  0  0  0
    7.1278   -5.7139    0.0000 N   0  0  0  0  0  0  0  0  0  0  0  0
    5.8896   -4.9945    0.0000 N   0  0  0  0  0  0  0  0  0  0  0  0
    6.7179   -6.4250    0.0000 C   0  0  0  0  0  0  0  0  0  0  0  0
    5.4713   -5.7139    0.0000 C   0  0  0  0  0  0  0  0  0  0  0  0
    5.8896   -6.4250    0.0000 C   0  0  0  0  0  0  0  0  0  0  0  0
    7.1278   -4.2918    0.0000 C   0  0  0  0  0  0  0  0  0  0  0  0
    7.9476   -4.2918    0.0000 C   0  0  0  0  0  0  0  0  0  0  0  0
    7.9476   -5.7139    0.0000 C   0  0  0  0  0  0  0  0  0  0  0  0
    8.3660   -4.9945    0.0000 C   0  0  0  0  0  0  0  0  0  0  0  0
    7.1278   -7.1445    0.0000 O   0  0  0  0  0  0  0  0  0  0  0  0
    4.6515   -5.7139    0.0000 O   0  0  0  0  0  0  0  0  0  0  0  0
    4.2415   -4.9945    0.0000 C   0  0  0  0  0  0  0  0  0  0  0  0
    3.4216   -4.9945    0.0000 N   0  0  0  0  0  0  0  0  0  0  0  0
    1.4306   -4.1746    0.0000 C   0  0  0  0  0  0  0  0  0  0  0  0
    2.1500   -4.5929    0.0000 C   0  0  0  0  0  0  0  0  0  0  0  0
    0.7195   -4.5929    0.0000 C   0  0  0  0  0  0  0  0  0  0  0  0
    2.1500   -5.4128    0.0000 C   0  0  0  0  0  0  0  0  0  0  0  0
    0.7195   -5.4128    0.0000 C   0  0  0  0  0  0  0  0  0  0  0  0
    1.4306   -5.8227    0.0000 C   0  0  0  0  0  0  0  0  0  0  0  0
    2.9281   -4.3335    0.0000 S   0  0  0  0  0  0  0  0  0  0  0  0
    2.9281   -5.6721    0.0000 C   0  0  0  0  0  0  0  0  0  0  0  0
    3.1790   -6.4585    0.0000 O   0  0  0  0  0  0  0  0  0  0  0  0
    1.4306   -6.6509    0.0000 C   0  0  0  0  0  0  0  0  0  0  0  0
    0.7195   -7.0609    0.0000 C   0  0  0  0  0  0  0  0  0  0  0  0
    2.1500   -7.0609    0.0000 C   0  0  0  0  0  0  0  0  0  0  0  0
    3.5388   -3.7898    0.0000 O   0  0  0  0  0  0  0  0  0  0  0  0
    2.7608   -3.5304    0.0000 O   0  0  0  0  0  0  0  0  0  0  0  0
    0.0000   -4.1746    0.0000 O   0  0  0  0  0  0  0  0  0  0  0  0
    0.0000   -3.3464    0.0000 C   0  0  0  0  0  0  0  0  0  0  0  0
    6.7179   -3.5806    0.0000 O   0  0  0  0  0  0  0  0  0  0  0  0
    7.1278   -2.8611    0.0000 C   0  0  0  0  0  0  0  0  0  0  0  0
    6.7179   -2.1500    0.0000 C   0  0  0  0  0  0  0  0  0  0  0  0
    7.1278   -1.4306    0.0000 N   0  0  0  0  0  0  0  0  0  0  0  0
    7.9476    0.0000    0.0000 C   0  0  0  0  0  0  0  0  0  0  0  0
    7.1278    0.0000    0.0000 C   0  0  0  0  0  0  0  0  0  0  0  0
    8.3660   -0.7195    0.0000 C   0  0  0  0  0  0  0  0  0  0  0  0
    6.7179   -0.7195    0.0000 C   0  0  0  0  0  0  0  0  0  0  0  0
    7.9476   -1.4306    0.0000 C   0  0  0  0  0  0  0  0  0  0  0  0
  1  3  2  0
  1  7  1  0
  1  2  1  0
  2  4  1  0
  2  9  1  0
  3  5  1  0
  4  6  1  0
  4 11  2  0
  5  6  2  0
  5 12  1  0
  7  8  2  0
  7 31  1  0
  8 10  1  0
  9 10  2  0
 12 13  1  0
 13 14  1  0
 14 21  1  0
 14 22  1  0
 15 16  2  0
 15 17  1  0
 16 18  1  0
 16 21  1  0
 17 19  2  0
 17 29  1  0
 18 20  2  0
 18 22  1  0
 19 20  1  0
 20 24  1  0
 21 27  2  0
 21 28  2  0
 22 23  2  0
 24 25  1  0
 24 26  1  0
 29 30  1  0
 31 32  1  0
 32 33  1  0
 33 34  1  0
 34 38  1  0
 34 39  1  0
 35 36  1  0
 35 37  1  0
 36 38  1  0
 37 39  1  0
M  END
>  <Formula>  (329) 
C27H32N4O7S

>  <FW>  (329) 
556.6306

>  <DSSTox_CID>  (329) 
27368

>  <NR-AR>  (329) 
0

>  <NR-AR-LBD>  (329) 
1

>  <NR-ER>  (329) 
0

>  <NR-ER-LBD>  (329) 
0

>  <NR-PPAR-gamma>  (329) 
0

>  <NR-AhR>  (329) 
0

>  <SR-ARE>  (329) 
1

>  <SR-ATAD5>  (329) 
0

>  <SR-HSE>  (329) 
0

>  <SR-MMP>  (329) 
0

>  <SR-p53>  (329) 
0

$$$$
NCGC00254151-01
     RDKit          2D

 20 23  0  0  0  0  0  0  0  0999 V2000
    2.5029   -0.8367    0.0000 C   0  0  0  0  0  0  0  0  0  0  0  0
    2.0178   -1.5046    0.0000 C   0  0  0  0  0  0  0  0  0  0  0  0
    2.1796   -0.0774    0.0000 C   0  0  0  0  0  0  0  0  0  0  0  0
    1.2022   -1.4132    0.0000 C   0  0  0  0  0  0  0  0  0  0  0  0
    1.3499    0.0000    0.0000 C   0  0  0  0  0  0  0  0  0  0  0  0
    0.8648   -0.6538    0.0000 C   0  0  0  0  0  0  0  0  0  0  0  0
    3.2904   -1.0968    0.0000 C   0  0  0  0  0  0  0  0  0  0  0  0
    3.2904   -1.9194    0.0000 C   0  0  0  0  0  0  0  0  0  0  0  0
    2.5029   -2.1655    0.0000 C   0  0  0  0  0  0  0  0  0  0  0  0
    4.0778   -0.8437    0.0000 N   0  0  0  0  0  0  0  0  0  0  0  0
    4.5629   -1.5046    0.0000 C   0  0  0  0  0  0  0  0  0  0  0  0
    4.0778   -2.1655    0.0000 S   0  0  0  0  0  0  0  0  0  0  0  0
    5.3785   -1.4835    0.0000 C   0  0  0  0  0  0  0  0  0  0  0  0
    5.8004   -0.7663    0.0000 C   0  0  0  0  0  0  0  0  0  0  0  0
    5.8004   -2.2006    0.0000 C   0  0  0  0  0  0  0  0  0  0  0  0
    6.6229   -0.7663    0.0000 C   0  0  0  0  0  0  0  0  0  0  0  0
    6.6159   -2.2076    0.0000 C   0  0  0  0  0  0  0  0  0  0  0  0
    7.0308   -1.4835    0.0000 C   0  0  0  0  0  0  0  0  0  0  0  0
    0.0000   -0.4359    0.0000 Cl  0  0  0  0  0  0  0  0  0  0  0  0
    3.2904   -0.2672    0.0000 O   0  0  0  0  0  0  0  0  0  0  0  0
  1  3  2  0
  1  7  1  0
  1  2  1  0
  2  4  2  0
  2  9  1  0
  3  5  1  0
  4  6  1  0
  5  6  2  0
  6 19  1  0
  7 10  1  0
  7  8  1  0
  7 20  1  0
  8  9  1  0
  8 12  1  0
 10 11  2  0
 11 12  1  0
 11 13  1  0
 13 14  2  0
 13 15  1  0
 14 16  1  0
 15 17  2  0
 16 18  2  0
 17 18  1  0
M  END
>  <Formula>  (330) 
C16H12ClNOS

>  <FW>  (330) 
301.7906

>  <DSSTox_CID>  (330) 
27338

>  <NR-AR>  (330) 
0

>  <NR-AR-LBD>  (330) 
0

>  <NR-ER>  (330) 
1

>  <NR-ER-LBD>  (330) 
0

>  <NR-PPAR-gamma>  (330) 
0

>  <NR-AhR>  (330) 
1

>  <SR-ARE>  (330) 
1

>  <SR-ATAD5>  (330) 
0

>  <SR-HSE>  (330) 
0

>  <SR-MMP>  (330) 
1

>  <SR-p53>  (330) 
0

$$$$
NCGC00256168-01
     RDKit          2D

 22 24  0  0  0  0  0  0  0  0999 V2000
    2.1485   -0.8250    0.0000 C   0  0  0  0  0  0  0  0  0  0  0  0
    2.1485   -2.4751    0.0000 C   0  0  0  0  0  0  0  0  0  0  0  0
    1.4323   -2.0683    0.0000 C   0  0  0  0  0  0  0  0  0  0  0  0
    2.8646   -1.2433    0.0000 C   0  0  0  0  0  0  0  0  0  0  0  0
    2.8646   -2.0683    0.0000 C   0  0  0  0  0  0  0  0  0  0  0  0
    1.4323   -1.2433    0.0000 C   0  0  0  0  0  0  0  0  0  0  0  0
    0.7161   -2.4751    0.0000 C   0  0  0  0  0  0  0  0  0  0  0  0
    0.7161   -0.8250    0.0000 C   0  0  0  0  0  0  0  0  0  0  0  0
    3.5808   -2.4751    0.0000 C   0  0  0  0  0  0  0  0  0  0  0  0
    3.5808   -0.8250    0.0000 C   0  0  0  0  0  0  0  0  0  0  0  0
    0.0000   -1.2433    0.0000 C   0  0  0  0  0  0  0  0  0  0  0  0
    4.2970   -2.0683    0.0000 C   0  0  0  0  0  0  0  0  0  0  0  0
    4.2970   -1.2318    0.0000 C   0  0  0  0  0  0  0  0  0  0  0  0
    0.0000   -2.0683    0.0000 C   0  0  0  0  0  0  0  0  0  0  0  0
    5.0131   -2.4751    0.0000 S   0  0  0  0  0  0  0  0  0  0  0  0
    4.5949   -3.1912    0.0000 O   0  0  0  0  0  0  0  0  0  0  0  0
    5.4199   -1.7589    0.0000 O   0  0  0  0  0  0  0  0  0  0  0  0
    5.7293   -2.8818    0.0000 O   0  0  0  0  0  0  0  0  0  0  0  0
    3.5808   -3.3001    0.0000 N   0  0  0  0  0  0  0  0  0  0  0  0
    3.5808    0.0000    0.0000 Br  0  0  0  0  0  0  0  0  0  0  0  0
    2.1485   -3.3001    0.0000 O   0  0  0  0  0  0  0  0  0  0  0  0
    2.1485    0.0000    0.0000 O   0  0  0  0  0  0  0  0  0  0  0  0
  1  4  1  0
  1  6  1  0
  1 22  2  0
  2  3  1  0
  2  5  1  0
  2 21  2  0
  3  6  2  0
  3  7  1  0
  4  5  2  0
  4 10  1  0
  5  9  1  0
  6  8  1  0
  7 14  2  0
  8 11  2  0
  9 12  2  0
  9 19  1  0
 10 13  2  0
 10 20  1  0
 11 14  1  0
 12 13  1  0
 12 15  1  0
 15 16  2  0
 15 17  1  0
 15 18  2  0
M  END
>  <Formula>  (331) 
C14H8BrNO5S

>  <FW>  (331) 
382.1860

>  <DSSTox_CID>  (331) 
24782

>  <NR-Aromatase>  (331) 
0

>  <NR-AR>  (331) 
0

>  <NR-AR-LBD>  (331) 
0

>  <NR-ER>  (331) 
0

>  <NR-ER-LBD>  (331) 
0

>  <NR-PPAR-gamma>  (331) 
0

>  <NR-AhR>  (331) 
1

>  <SR-ARE>  (331) 
1

>  <SR-ATAD5>  (331) 
0

>  <SR-HSE>  (331) 
0

>  <SR-p53>  (331) 
0

$$$$
NCGC00255345-01
     RDKit          2D

 20 22  0  0  1  0  0  0  0  0999 V2000
    5.0139   -2.0494    0.0000 C   0  0  0  0  0  0  0  0  0  0  0  0
    4.2921   -0.8314    0.0000 N   0  0  0  0  0  0  0  0  0  0  0  0
    5.0139   -1.2309    0.0000 C   0  0  0  0  0  0  0  0  0  0  0  0
    3.5896   -2.0494    0.0000 C   0  0  0  0  0  0  0  0  0  0  0  0
    3.5896   -1.2309    0.0000 C   0  0  0  0  0  0  0  0  0  0  0  0
    5.7227   -0.8314    0.0000 N   0  0  0  0  0  0  0  0  0  0  0  0
    6.4445   -2.0494    0.0000 C   0  0  0  0  0  0  0  0  0  0  0  0
    0.7218   -2.0494    0.0000 C   0  0  0  0  0  0  0  0  0  0  0  0
    2.8743   -0.8314    0.0000 C   0  0  0  0  0  0  0  0  0  0  0  0
    2.8743   -2.4683    0.0000 C   0  0  0  0  0  0  0  0  0  0  0  0
    6.4445   -1.2309    0.0000 C   0  0  0  0  0  0  0  0  0  0  0  0
    1.4436   -2.4683    0.0000 O   0  0  0  0  0  0  0  0  0  0  0  0
    2.1589   -2.0494    0.0000 C   0  0  0  0  0  0  0  0  0  0  0  0
    0.0000   -2.4618    0.0000 O   0  0  0  0  0  0  0  0  0  0  0  0
    0.7218   -1.2180    0.0000 N   0  0  0  0  0  0  0  0  0  0  0  0
    4.2921    0.0000    0.0000 C   0  0  0  0  0  0  0  0  0  0  0  0
    5.0267   -2.8807    0.0000 C   0  0  0  0  0  0  0  0  0  0  0  0
    2.1589   -1.2309    0.0000 C   0  0  0  0  0  0  0  0  0  0  0  0
    5.7227    0.0000    0.0000 C   0  0  0  0  0  0  0  0  0  0  0  0
    1.4307   -0.8184    0.0000 C   0  0  0  0  0  0  0  0  0  0  0  0
  1  3  1  0
  1  4  1  0
  1  7  1  0
  1 17  1  6
  3  2  1  1
  2 16  1  0
  2  5  1  0
  3  6  1  0
  4  5  2  0
  4 10  1  0
  5  9  1  0
  6 19  1  0
  6 11  1  0
  7 11  1  0
  8 12  1  0
  8 14  2  0
  8 15  1  0
  9 18  2  0
 10 13  2  0
 12 13  1  0
 13 18  1  0
 15 20  1  0
M  END
>  <Formula>  (332) 
C15H21N3O2

>  <FW>  (332) 
275.3461

>  <DSSTox_CID>  (332) 
3471

>  <NR-Aromatase>  (332) 
0

>  <NR-AR>  (332) 
0

>  <NR-AR-LBD>  (332) 
0

>  <NR-ER>  (332) 
0

>  <NR-ER-LBD>  (332) 
0

>  <NR-PPAR-gamma>  (332) 
0

>  <SR-ARE>  (332) 
1

>  <SR-ATAD5>  (332) 
0

>  <SR-HSE>  (332) 
0

>  <SR-MMP>  (332) 
0

>  <SR-p53>  (332) 
0

$$$$
NCGC00254963-01
     RDKit          2D

 26 29  0  0  0  0  0  0  0  0999 V2000
    3.5110   -4.9883    0.0000 F   0  0  0  0  0  0  0  0  0  0  0  0
    3.9268   -4.2721    0.0000 C   0  0  0  0  0  0  0  0  0  0  0  0
    3.5110   -3.5622    0.0000 C   0  0  0  0  0  0  0  0  0  0  0  0
    3.9268   -2.8459    0.0000 C   0  0  0  0  0  0  0  0  0  0  0  0
    4.7518   -2.8459    0.0000 C   0  0  0  0  0  0  0  0  0  0  0  0
    5.1547   -3.5622    0.0000 C   0  0  0  0  0  0  0  0  0  0  0  0
    4.7518   -4.2721    0.0000 C   0  0  0  0  0  0  0  0  0  0  0  0
    5.9797   -3.5622    0.0000 O   0  0  0  0  0  0  0  0  0  0  0  0
    6.3953   -2.8459    0.0000 C   0  0  0  0  0  0  0  0  0  0  0  0
    5.9797   -2.1297    0.0000 C   0  0  0  0  0  0  0  0  0  0  0  0
    6.3953   -1.4262    0.0000 O   0  0  0  0  0  0  0  0  0  0  0  0
    5.1547   -2.1297    0.0000 N   0  0  0  0  0  0  0  0  0  0  0  0
    4.7518   -1.4262    0.0000 C   0  0  0  0  0  0  0  0  0  0  0  0
    5.1547   -0.7163    0.0000 C   0  0  0  0  0  0  0  0  0  0  0  0
    5.5703    0.0000    0.0000 C   0  0  0  0  0  0  0  0  0  0  0  0
    2.6860   -3.5622    0.0000 N   0  0  0  0  0  0  0  0  0  0  0  0
    2.2128   -2.8971    0.0000 C   0  0  0  0  0  0  0  0  0  0  0  0
    2.4558   -2.1104    0.0000 O   0  0  0  0  0  0  0  0  0  0  0  0
    1.4262   -3.1529    0.0000 C   0  0  0  0  0  0  0  0  0  0  0  0
    1.4262   -3.9779    0.0000 C   0  0  0  0  0  0  0  0  0  0  0  0
    2.2128   -4.2273    0.0000 C   0  0  0  0  0  0  0  0  0  0  0  0
    2.4558   -5.0075    0.0000 O   0  0  0  0  0  0  0  0  0  0  0  0
    0.7163   -4.3808    0.0000 C   0  0  0  0  0  0  0  0  0  0  0  0
    0.0000   -3.9779    0.0000 C   0  0  0  0  0  0  0  0  0  0  0  0
    0.0000   -3.1529    0.0000 C   0  0  0  0  0  0  0  0  0  0  0  0
    0.7163   -2.7372    0.0000 C   0  0  0  0  0  0  0  0  0  0  0  0
  1  2  1  0
  2  3  2  0
  2  7  1  0
  3  4  1  0
  3 16  1  0
  4  5  2  0
  5  6  1  0
  5 12  1  0
  6  7  2  0
  6  8  1  0
  8  9  1  0
  9 10  1  0
 10 11  2  0
 10 12  1  0
 12 13  1  0
 13 14  1  0
 14 15  3  0
 16 17  1  0
 16 21  1  0
 17 18  2  0
 17 19  1  0
 19 20  2  0
 19 26  1  0
 20 21  1  0
 20 23  1  0
 21 22  2  0
 23 24  1  0
 24 25  1  0
 25 26  1  0
M  END
>  <Formula>  (333) 
C19H15FN2O4

>  <FW>  (333) 
354.3318

>  <DSSTox_CID>  (333) 
12555

>  <NR-Aromatase>  (333) 
0

>  <NR-AR>  (333) 
0

>  <NR-AR-LBD>  (333) 
0

>  <NR-ER>  (333) 
0

>  <NR-ER-LBD>  (333) 
0

>  <NR-PPAR-gamma>  (333) 
0

>  <NR-AhR>  (333) 
0

>  <SR-ARE>  (333) 
1

>  <SR-ATAD5>  (333) 
0

>  <SR-HSE>  (333) 
0

>  <SR-p53>  (333) 
0

$$$$
NCGC00260125-01
     RDKit          2D

 23 24  0  0  0  0  0  0  0  0999 V2000
    2.1451   -0.8200    0.0000 C   0  0  0  0  0  0  0  0  0  0  0  0
    2.1451   -2.4672    0.0000 C   0  0  0  0  0  0  0  0  0  0  0  0
    1.4276   -2.0645    0.0000 C   0  0  0  0  0  0  0  0  0  0  0  0
    2.8625   -1.2373    0.0000 C   0  0  0  0  0  0  0  0  0  0  0  0
    2.8625   -2.0645    0.0000 C   0  0  0  0  0  0  0  0  0  0  0  0
    1.4276   -1.2373    0.0000 C   0  0  0  0  0  0  0  0  0  0  0  0
    0.7175   -2.4672    0.0000 C   0  0  0  0  0  0  0  0  0  0  0  0
    0.7175   -0.8200    0.0000 C   0  0  0  0  0  0  0  0  0  0  0  0
    3.5727   -2.4672    0.0000 C   0  0  0  0  0  0  0  0  0  0  0  0
    3.5727   -0.8200    0.0000 C   0  0  0  0  0  0  0  0  0  0  0  0
    0.0000   -1.2373    0.0000 C   0  0  0  0  0  0  0  0  0  0  0  0
    4.2901   -2.0645    0.0000 C   0  0  0  0  0  0  0  0  0  0  0  0
    4.2901   -1.2299    0.0000 C   0  0  0  0  0  0  0  0  0  0  0  0
    0.0000   -2.0645    0.0000 C   0  0  0  0  0  0  0  0  0  0  0  0
    5.0076   -2.4672    0.0000 S   0  0  0  0  0  0  0  0  0  0  0  0
    4.5903   -3.1847    0.0000 O   0  0  0  0  0  0  0  0  0  0  0  0
    5.4103   -1.7571    0.0000 O   0  0  0  0  0  0  0  0  0  0  0  0
    5.7251   -2.8845    0.0000 O   0  0  0  0  0  0  0  0  0  0  0  0
    3.5727   -3.2945    0.0000 N   0  0  0  0  0  0  0  0  0  0  0  0
    3.5727    0.0000    0.0000 Br  0  0  0  0  0  0  0  0  0  0  0  0
    2.1451   -3.2945    0.0000 O   0  0  0  0  0  0  0  0  0  0  0  0
    2.1451    0.0000    0.0000 O   0  0  0  0  0  0  0  0  0  0  0  0
    7.3210   -1.6472    0.0000 Na  0  0  0  0  0 15  0  0  0  0  0  0
  1  4  1  0
  1  6  1  0
  1 22  2  0
  2  3  1  0
  2  5  1  0
  2 21  2  0
  3  6  2  0
  3  7  1  0
  4  5  2  0
  4 10  1  0
  5  9  1  0
  6  8  1  0
  7 14  2  0
  8 11  2  0
  9 12  2  0
  9 19  1  0
 10 13  2  0
 10 20  1  0
 11 14  1  0
 12 13  1  0
 12 15  1  0
 15 16  2  0
 15 17  1  0
 15 18  2  0
M  CHG  2  17  -1  23   1
M  END
>  <Formula>  (334) 
C14H7BrNNaO5S

>  <FW>  (334) 
404.1678 (381.1786+22.9892)

>  <DSSTox_CID>  (334) 
9277

>  <NR-Aromatase>  (334) 
0

>  <NR-AR>  (334) 
0

>  <NR-AR-LBD>  (334) 
0

>  <NR-ER>  (334) 
0

>  <NR-ER-LBD>  (334) 
0

>  <NR-PPAR-gamma>  (334) 
0

>  <NR-AhR>  (334) 
1

>  <SR-ARE>  (334) 
1

>  <SR-ATAD5>  (334) 
0

>  <SR-HSE>  (334) 
0

>  <SR-p53>  (334) 
0

$$$$
NCGC00247720-01
     RDKit          2D

 23 26  0  0  1  0  0  0  0  0999 V2000
    1.4401   -3.3352    0.0000 C   0  0  0  0  0  0  0  0  0  0  0  0
    1.4401   -2.4901    0.0000 C   0  0  0  0  0  0  0  0  0  0  0  0
    2.1451   -3.7403    0.0000 C   0  0  0  0  0  0  0  0  0  0  0  0
    0.7151   -2.0751    0.0000 C   0  0  0  0  0  0  0  0  0  0  0  0
    0.7151   -3.7403    0.0000 C   0  0  0  0  0  0  0  0  0  0  0  0
    0.2400   -2.8852    0.0000 O   0  0  0  0  0  0  0  0  0  0  0  0
    2.8552   -3.3152    0.0000 C   0  0  0  0  0  0  0  0  0  0  0  0
    2.1451   -2.0751    0.0000 C   0  0  0  0  0  0  0  0  0  0  0  0
    2.1451   -4.5653    0.0000 C   0  0  0  0  0  0  0  0  0  0  0  0
    2.8552   -2.4901    0.0000 C   0  0  0  0  0  0  0  0  0  0  0  0
    3.2552   -3.7003    0.0000 N   0  0  0  0  0  0  0  0  0  0  0  0
    1.4401   -4.1553    0.0000 C   0  0  0  0  0  0  0  0  0  0  0  0
    1.4401   -4.9803    0.0000 C   0  0  0  0  0  0  0  0  0  0  0  0
    0.7151   -4.5853    0.0000 C   0  0  0  0  0  0  0  0  0  0  0  0
    0.7151   -1.2601    0.0000 C   0  0  0  0  0  0  0  0  0  0  0  0
    3.0152   -4.1553    0.0000 C   0  0  0  0  0  0  0  0  0  0  0  0
    2.1451   -1.2601    0.0000 C   0  0  0  0  0  0  0  0  0  0  0  0
    1.4401   -0.8350    0.0000 C   0  0  0  0  0  0  0  0  0  0  0  0
    0.0200   -5.0003    0.0000 O   0  0  0  0  0  0  0  0  0  0  0  0
    0.0000   -0.8350    0.0000 O   0  0  0  0  0  0  0  0  0  0  0  0
    4.0303   -3.7003    0.0000 C   0  0  0  0  0  0  0  0  0  0  0  0
    0.0000    0.0000    0.0000 C   0  0  0  0  0  0  0  0  0  0  0  0
    3.5802   -1.6251    0.0000 Cl  0  0  0  0  0  0  0  0  0  0  0  0
  1  2  1  0
  1  3  1  0
  1  5  1  0
  1 12  1  1
  2  4  2  0
  2  8  1  0
  3  7  1  0
  3  9  1  6
  4 15  1  0
  4  6  1  0
  5  6  1  6
  5 14  1  0
  7 10  1  1
  7 11  1  0
  8 17  2  0
  8 10  1  0
  9 13  2  0
 11 16  1  0
 11 21  1  0
 12 16  1  0
 13 14  1  0
 14 19  1  6
 15 20  1  0
 15 18  2  0
 17 18  1  0
 20 22  1  0
M  END
>  <Formula>  (335) 
C18H22ClNO3

>  <FW>  (335) 
335.8252 (299.3642+36.4609)

>  <DSSTox_CID>  (335) 
28830

>  <NR-Aromatase>  (335) 
0

>  <NR-AR>  (335) 
0

>  <NR-AR-LBD>  (335) 
0

>  <NR-ER>  (335) 
0

>  <NR-ER-LBD>  (335) 
0

>  <NR-PPAR-gamma>  (335) 
0

>  <NR-AhR>  (335) 
0

>  <SR-ARE>  (335) 
1

>  <SR-ATAD5>  (335) 
0

>  <SR-HSE>  (335) 
1

>  <SR-MMP>  (335) 
0

>  <SR-p53>  (335) 
0

$$$$
NCGC00259767-01
     RDKit          2D

 21 23  0  0  0  0  0  0  0  0999 V2000
    2.0728    0.0000    0.0000 C   0  0  0  0  0  0  0  0  0  0  0  0
    2.4385   -0.7438    0.0000 C   0  0  0  0  0  0  0  0  0  0  0  0
    1.9691   -1.4326    0.0000 C   0  0  0  0  0  0  0  0  0  0  0  0
    2.7311   -1.7618    0.0000 C   0  0  0  0  0  0  0  0  0  0  0  0
    2.8165   -2.5848    0.0000 C   0  0  0  0  0  0  0  0  0  0  0  0
    3.6212   -2.7555    0.0000 C   0  0  0  0  0  0  0  0  0  0  0  0
    4.0357   -2.0422    0.0000 C   0  0  0  0  0  0  0  0  0  0  0  0
    4.8587   -2.0422    0.0000 C   0  0  0  0  0  0  0  0  0  0  0  0
    5.2733   -2.7555    0.0000 C   0  0  0  0  0  0  0  0  0  0  0  0
    4.8587   -3.4688    0.0000 C   0  0  0  0  0  0  0  0  0  0  0  0
    4.0357   -3.4688    0.0000 C   0  0  0  0  0  0  0  0  0  0  0  0
    5.2733   -1.3229    0.0000 C   0  0  0  0  0  0  0  0  0  0  0  0
    6.0962   -1.3229    0.0000 C   0  0  0  0  0  0  0  0  0  0  0  0
    3.4809   -1.4265    0.0000 N   0  0  0  0  0  0  0  0  0  0  0  0
    2.1459   -3.0664    0.0000 C   0  0  0  0  0  0  0  0  0  0  0  0
    1.3960   -2.7311    0.0000 C   0  0  0  0  0  0  0  0  0  0  0  0
    1.3046   -1.9142    0.0000 O   0  0  0  0  0  0  0  0  0  0  0  0
    1.3839   -0.8473    0.0000 C   0  0  0  0  0  0  0  0  0  0  0  0
    0.5852   -1.0851    0.0000 C   0  0  0  0  0  0  0  0  0  0  0  0
    0.3718   -1.8777    0.0000 O   0  0  0  0  0  0  0  0  0  0  0  0
    0.0000   -0.5060    0.0000 O   0  0  0  0  0  0  0  0  0  0  0  0
  1  2  1  0
  2  3  1  0
  3  4  1  0
  3 17  1  0
  3 18  1  0
  4  5  2  0
  4 14  1  0
  5  6  1  0
  5 15  1  0
  6  7  2  0
  6 11  1  0
  7  8  1  0
  7 14  1  0
  8  9  2  0
  8 12  1  0
  9 10  1  0
 10 11  2  0
 12 13  1  0
 15 16  1  0
 16 17  1  0
 18 19  1  0
 19 20  2  0
 19 21  1  0
M  END
>  <Formula>  (336) 
C17H21NO3

>  <FW>  (336) 
287.3535

>  <DSSTox_CID>  (336) 
615

>  <NR-Aromatase>  (336) 
0

>  <NR-AR>  (336) 
0

>  <NR-AR-LBD>  (336) 
0

>  <NR-ER>  (336) 
0

>  <NR-ER-LBD>  (336) 
0

>  <NR-PPAR-gamma>  (336) 
0

>  <NR-AhR>  (336) 
0

>  <SR-ARE>  (336) 
1

>  <SR-ATAD5>  (336) 
0

>  <SR-HSE>  (336) 
0

>  <SR-MMP>  (336) 
0

>  <SR-p53>  (336) 
0

$$$$
NCGC00254640-01
     RDKit          2D

 23 26  0  0  0  0  0  0  0  0999 V2000
    2.7236   -1.4552    0.0000 C   0  0  0  0  0  0  0  0  0  0  0  0
    1.4358   -1.0237    0.0000 C   0  0  0  0  0  0  0  0  0  0  0  0
    2.2149   -0.7919    0.0000 C   0  0  0  0  0  0  0  0  0  0  0  0
    1.4358   -1.8929    0.0000 C   0  0  0  0  0  0  0  0  0  0  0  0
    2.2149   -2.1248    0.0000 C   0  0  0  0  0  0  0  0  0  0  0  0
    0.7147   -0.6245    0.0000 C   0  0  0  0  0  0  0  0  0  0  0  0
    0.7147   -2.2921    0.0000 C   0  0  0  0  0  0  0  0  0  0  0  0
    0.0000   -1.8929    0.0000 C   0  0  0  0  0  0  0  0  0  0  0  0
    0.0000   -1.0237    0.0000 C   0  0  0  0  0  0  0  0  0  0  0  0
    2.4918   -2.9167    0.0000 O   0  0  0  0  0  0  0  0  0  0  0  0
    2.4918    0.0000    0.0000 O   0  0  0  0  0  0  0  0  0  0  0  0
    3.9726   -0.7340    0.0000 N   0  0  0  0  0  0  0  0  0  0  0  0
    4.8097   -0.7340    0.0000 C   0  0  0  0  0  0  0  0  0  0  0  0
    5.2089   -1.4358    0.0000 C   0  0  0  0  0  0  0  0  0  0  0  0
    3.5413   -1.4552    0.0000 C   0  0  0  0  0  0  0  0  0  0  0  0
    5.1895   -0.0193    0.0000 C   0  0  0  0  0  0  0  0  0  0  0  0
    6.0266   -1.4552    0.0000 C   0  0  0  0  0  0  0  0  0  0  0  0
    4.8097   -2.1634    0.0000 C   0  0  0  0  0  0  0  0  0  0  0  0
    3.9726   -2.1634    0.0000 C   0  0  0  0  0  0  0  0  0  0  0  0
    6.4387   -0.7340    0.0000 C   0  0  0  0  0  0  0  0  0  0  0  0
    6.0266   -0.0193    0.0000 C   0  0  0  0  0  0  0  0  0  0  0  0
    5.2089   -2.8780    0.0000 Br  0  0  0  0  0  0  0  0  0  0  0  0
    3.5606   -2.8974    0.0000 O   0  0  0  0  0  0  0  0  0  0  0  0
  1  3  1  0
  1  5  1  0
  1 15  1  0
  2  3  1  0
  2  4  2  0
  2  6  1  0
  3 11  2  0
  4  5  1  0
  4  7  1  0
  5 10  2  0
  6  9  2  0
  7  8  2  0
  8  9  1  0
 12 13  2  0
 12 15  1  0
 13 14  1  0
 13 16  1  0
 14 17  1  0
 14 18  2  0
 15 19  2  0
 16 21  2  0
 17 20  2  0
 18 19  1  0
 18 22  1  0
 19 23  1  0
 20 21  1  0
M  END
>  <Formula>  (337) 
C18H10BrNO3

>  <FW>  (337) 
368.1809

>  <DSSTox_CID>  (337) 
24503

>  <NR-Aromatase>  (337) 
0

>  <NR-AR>  (337) 
0

>  <NR-AR-LBD>  (337) 
0

>  <NR-ER>  (337) 
0

>  <NR-ER-LBD>  (337) 
0

>  <NR-PPAR-gamma>  (337) 
0

>  <NR-AhR>  (337) 
1

>  <SR-ARE>  (337) 
1

>  <SR-ATAD5>  (337) 
1

>  <SR-HSE>  (337) 
0

>  <SR-MMP>  (337) 
1

>  <SR-p53>  (337) 
0

$$$$
NCGC00257636-01
     RDKit          2D

 22 26  0  0  1  0  0  0  0  0999 V2000
    1.4450   -3.3299    0.0000 C   0  0  0  0  0  0  0  0  0  0  0  0
    1.4450   -2.4899    0.0000 C   0  0  0  0  0  0  0  0  0  0  0  0
    2.1499   -3.7449    0.0000 C   0  0  0  0  0  0  0  0  0  0  0  0
    0.7200   -2.0749    0.0000 C   0  0  0  0  0  0  0  0  0  0  0  0
    0.7200   -3.7449    0.0000 C   0  0  0  0  0  0  0  0  0  0  0  0
    0.2400   -2.8849    0.0000 O   0  0  0  0  0  0  0  0  0  0  0  0
    2.8649   -3.3149    0.0000 C   0  0  0  0  0  0  0  0  0  0  0  0
    2.1499   -2.0749    0.0000 C   0  0  0  0  0  0  0  0  0  0  0  0
    2.1499   -4.5698    0.0000 C   0  0  0  0  0  0  0  0  0  0  0  0
    2.8649   -2.4899    0.0000 C   0  0  0  0  0  0  0  0  0  0  0  0
    3.2649   -3.6999    0.0000 N   0  0  0  0  0  0  0  0  0  0  0  0
    1.4450   -4.1548    0.0000 C   0  0  0  0  0  0  0  0  0  0  0  0
    1.4450   -4.9848    0.0000 C   0  0  0  0  0  0  0  0  0  0  0  0
    0.7200   -4.5848    0.0000 C   0  0  0  0  0  0  0  0  0  0  0  0
    0.7200   -1.2550    0.0000 C   0  0  0  0  0  0  0  0  0  0  0  0
    3.0249   -4.1548    0.0000 C   0  0  0  0  0  0  0  0  0  0  0  0
    2.1499   -1.2550    0.0000 C   0  0  0  0  0  0  0  0  0  0  0  0
    1.4450   -0.8300    0.0000 C   0  0  0  0  0  0  0  0  0  0  0  0
    0.0250   -4.9998    0.0000 O   0  0  0  0  0  0  0  0  0  0  0  0
    0.0000   -0.8300    0.0000 O   0  0  0  0  0  0  0  0  0  0  0  0
    4.0398   -3.6999    0.0000 C   0  0  0  0  0  0  0  0  0  0  0  0
    0.0000    0.0000    0.0000 C   0  0  0  0  0  0  0  0  0  0  0  0
  1  2  1  0
  1  3  1  0
  1  5  1  0
  1 12  1  1
  2  4  2  0
  2  8  1  0
  3  7  1  0
  3  9  1  6
  4 15  1  0
  4  6  1  0
  5  6  1  6
  5 14  1  0
  7 10  1  1
  7 11  1  0
  8 17  2  0
  8 10  1  0
  9 13  2  0
 11 16  1  0
 11 21  1  0
 12 16  1  0
 13 14  1  0
 14 19  1  6
 15 20  1  0
 15 18  2  0
 17 18  1  0
 20 22  1  0
M  END
>  <Formula>  (338) 
C18H21NO3

>  <FW>  (338) 
299.3642

>  <DSSTox_CID>  (338) 
341

>  <NR-Aromatase>  (338) 
0

>  <NR-AR>  (338) 
1

>  <NR-AR-LBD>  (338) 
0

>  <NR-ER>  (338) 
0

>  <NR-ER-LBD>  (338) 
0

>  <NR-PPAR-gamma>  (338) 
0

>  <NR-AhR>  (338) 
0

>  <SR-ARE>  (338) 
1

>  <SR-ATAD5>  (338) 
0

>  <SR-HSE>  (338) 
0

>  <SR-MMP>  (338) 
0

>  <SR-p53>  (338) 
0

$$$$
NCGC00188346-01
     RDKit          2D

 23 26  0  0  0  0  0  0  0  0999 V2000
    0.7167   -3.3025    0.0000 N   0  0  0  0  0  0  0  0  0  0  0  0
    0.7167   -4.1317    0.0000 C   0  0  0  0  0  0  0  0  0  0  0  0
    0.0000   -4.5392    0.0000 N   0  0  0  0  0  0  0  0  0  0  0  0
    0.0000   -5.3614    0.0000 C   0  0  0  0  0  0  0  0  0  0  0  0
    0.7167   -5.7830    0.0000 N   0  0  0  0  0  0  0  0  0  0  0  0
    1.4264   -5.3614    0.0000 C   0  0  0  0  0  0  0  0  0  0  0  0
    1.4264   -4.5392    0.0000 C   0  0  0  0  0  0  0  0  0  0  0  0
    2.2064   -4.2863    0.0000 C   0  0  0  0  0  0  0  0  0  0  0  0
    2.4664   -3.5063    0.0000 C   0  0  0  0  0  0  0  0  0  0  0  0
    1.9815   -2.8388    0.0000 C   0  0  0  0  0  0  0  0  0  0  0  0
    2.4664   -2.1712    0.0000 C   0  0  0  0  0  0  0  0  0  0  0  0
    3.2533   -2.4172    0.0000 C   0  0  0  0  0  0  0  0  0  0  0  0
    3.8717   -1.8691    0.0000 C   0  0  0  0  0  0  0  0  0  0  0  0
    3.6890   -1.0540    0.0000 C   0  0  0  0  0  0  0  0  0  0  0  0
    2.9090   -0.8081    0.0000 C   0  0  0  0  0  0  0  0  0  0  0  0
    2.7404    0.0000    0.0000 O   0  0  0  0  0  0  0  0  0  0  0  0
    2.2977   -1.3561    0.0000 C   0  0  0  0  0  0  0  0  0  0  0  0
    3.2533   -3.2463    0.0000 N   0  0  0  0  0  0  0  0  0  0  0  0
    2.6982   -4.9538    0.0000 N   0  0  0  0  0  0  0  0  0  0  0  0
    2.2064   -5.6213    0.0000 N   0  0  0  0  0  0  0  0  0  0  0  0
    2.4664   -6.4083    0.0000 C   0  0  0  0  0  0  0  0  0  0  0  0
    1.9112   -7.0267    0.0000 C   0  0  0  0  0  0  0  0  0  0  0  0
    3.2745   -6.5770    0.0000 C   0  0  0  0  0  0  0  0  0  0  0  0
  1  2  1  0
  2  3  2  0
  2  7  1  0
  3  4  1  0
  4  5  2  0
  5  6  1  0
  6  7  2  0
  6 20  1  0
  7  8  1  0
  8  9  1  0
  8 19  2  0
  9 10  2  0
  9 18  1  0
 10 11  1  0
 11 12  2  0
 11 17  1  0
 12 13  1  0
 12 18  1  0
 13 14  2  0
 14 15  1  0
 15 16  1  0
 15 17  2  0
 19 20  1  0
 20 21  1  0
 21 22  1  0
 21 23  1  0
M  END
>  <Formula>  (339) 
C16H16N6O

>  <FW>  (339) 
308.3378

>  <DSSTox_CID>  (339) 
28611

>  <NR-AR>  (339) 
0

>  <NR-ER-LBD>  (339) 
0

>  <NR-AhR>  (339) 
1

>  <SR-ATAD5>  (339) 
1

>  <SR-MMP>  (339) 
0

$$$$
NCGC00185772-01
     RDKit          2D

 60 67  0  0  1  0  0  0  0  0999 V2000
    6.2193   -2.5203    0.0000 S   0  0  0  0  0  0  0  0  0  0  0  0
    7.0434   -2.5203    0.0000 O   0  0  0  0  0  0  0  0  0  0  0  0
    5.3951   -2.5203    0.0000 O   0  0  0  0  0  0  0  0  0  0  0  0
    6.2193   -3.3444    0.0000 O   0  0  0  0  0  0  0  0  0  0  0  0
    6.2193   -1.6962    0.0000 O   0  0  0  0  0  0  0  0  0  0  0  0
    8.1454   -5.5293    0.0000 C   0  0  0  0  0  0  0  0  0  0  0  0
    8.1454   -6.3439    0.0000 C   0  0  0  0  0  0  0  0  0  0  0  0
    7.4363   -5.1077    0.0000 C   0  0  0  0  0  0  0  0  0  0  0  0
    7.4363   -6.7655    0.0000 C   0  0  0  0  0  0  0  0  0  0  0  0
    6.7272   -5.5293    0.0000 C   0  0  0  0  0  0  0  0  0  0  0  0
    6.7272   -6.3439    0.0000 C   0  0  0  0  0  0  0  0  0  0  0  0
    8.8738   -5.1077    0.0000 C   0  0  0  0  0  0  0  0  0  0  0  0
    8.8738   -4.2835    0.0000 C   0  0  0  0  0  0  0  0  0  0  0  0
    7.4363   -4.2835    0.0000 N   0  0  0  0  0  0  0  0  0  0  0  0
    8.1454   -3.8619    0.0000 C   0  0  0  0  0  0  0  0  0  0  0  0
    6.1618   -4.7052    0.0000 C   0  0  0  0  0  0  0  0  0  0  0  0
    6.6409   -4.0248    0.0000 C   0  0  0  0  0  0  0  0  0  0  0  0
    5.8359   -5.2227    0.0000 C   0  0  0  0  0  0  0  0  0  0  0  0
    5.4143   -5.9510    0.0000 C   0  0  0  0  0  0  0  0  0  0  0  0
    5.9318   -6.6026    0.0000 N   0  0  0  0  0  0  0  0  0  0  0  0
    5.4143   -4.5135    0.0000 C   0  0  0  0  0  0  0  0  0  0  0  0
    4.5902   -4.5135    0.0000 C   0  0  0  0  0  0  0  0  0  0  0  0
    4.5902   -5.9510    0.0000 C   0  0  0  0  0  0  0  0  0  0  0  0
    4.1782   -5.2227    0.0000 C   0  0  0  0  0  0  0  0  0  0  0  0
    3.3540   -5.2227    0.0000 O   0  0  0  0  0  0  0  0  0  0  0  0
    8.8738   -5.9414    0.0000 C   0  0  0  0  0  0  0  0  0  0  0  0
    9.5829   -5.5197    0.0000 C   0  0  0  0  0  0  0  0  0  0  0  0
    8.8738   -6.7655    0.0000 O   0  0  0  0  0  0  0  0  0  0  0  0
    7.8484   -7.4938    0.0000 O   0  0  0  0  0  0  0  0  0  0  0  0
    7.0338   -7.5225    0.0000 C   0  0  0  0  0  0  0  0  0  0  0  0
    6.2097   -7.5225    0.0000 O   0  0  0  0  0  0  0  0  0  0  0  0
    7.4842   -8.2029    0.0000 N   0  0  0  0  0  0  0  0  0  0  0  0
    5.6731   -7.3980    0.0000 C   0  0  0  0  0  0  0  0  0  0  0  0
    2.9324   -5.9510    0.0000 C   0  0  0  0  0  0  0  0  0  0  0  0
    4.6764   -0.4216    0.0000 C   0  0  0  0  0  0  0  0  0  0  0  0
    4.6764   -1.2362    0.0000 C   0  0  0  0  0  0  0  0  0  0  0  0
    3.9673    0.0000    0.0000 C   0  0  0  0  0  0  0  0  0  0  0  0
    3.9673   -1.6578    0.0000 C   0  0  0  0  0  0  0  0  0  0  0  0
    3.2582   -0.4216    0.0000 N   0  0  0  0  0  0  0  0  0  0  0  0
    3.2582   -1.2362    0.0000 C   0  0  0  0  0  0  0  0  0  0  0  0
    3.9673   -2.4820    0.0000 C   0  0  0  0  0  0  0  0  0  0  0  0
    3.2582   -2.8941    0.0000 C   0  0  0  0  0  0  0  0  0  0  0  0
    2.5299   -1.6578    0.0000 C   0  0  0  0  0  0  0  0  0  0  0  0
    2.5299   -2.4820    0.0000 C   0  0  0  0  0  0  0  0  0  0  0  0
    2.4628   -0.1629    0.0000 C   0  0  0  0  0  0  0  0  0  0  0  0
    1.9741   -0.8241    0.0000 C   0  0  0  0  0  0  0  0  0  0  0  0
    1.6578   -1.3512    0.0000 C   0  0  0  0  0  0  0  0  0  0  0  0
    1.2458   -2.0795    0.0000 C   0  0  0  0  0  0  0  0  0  0  0  0
    1.7345   -2.7407    0.0000 N   0  0  0  0  0  0  0  0  0  0  0  0
    1.2458   -0.6421    0.0000 C   0  0  0  0  0  0  0  0  0  0  0  0
    0.4216   -0.6421    0.0000 C   0  0  0  0  0  0  0  0  0  0  0  0
    0.4216   -2.0795    0.0000 C   0  0  0  0  0  0  0  0  0  0  0  0
    0.0000   -1.3512    0.0000 C   0  0  0  0  0  0  0  0  0  0  0  0
    5.4047    0.0000    0.0000 C   0  0  0  0  0  0  0  0  0  0  0  0
    6.1139   -0.4025    0.0000 C   0  0  0  0  0  0  0  0  0  0  0  0
    5.4047   -0.8241    0.0000 O   0  0  0  0  0  0  0  0  0  0  0  0
    2.8461   -3.6032    0.0000 C   0  0  0  0  0  0  0  0  0  0  0  0
    2.0220   -3.6032    0.0000 O   0  0  0  0  0  0  0  0  0  0  0  0
    3.2677   -4.3123    0.0000 O   0  0  0  0  0  0  0  0  0  0  0  0
    2.8557   -5.0406    0.0000 C   0  0  0  0  0  0  0  0  0  0  0  0
  1  2  2  0
  1  3  2  0
  1  4  1  0
  1  5  1  0
  6  7  1  0
  6 12  1  0
  6  8  1  0
  6 26  1  6
  7  9  1  0
  7 28  1  1
  8 10  1  0
  8 14  1  1
  9 11  1  0
  9 29  1  1
  9 30  1  0
 10 16  1  1
 10 18  1  0
 10 11  1  0
 11 20  1  6
 12 13  2  0
 13 15  1  0
 14 15  1  0
 14 17  1  0
 16 17  1  0
 18 21  2  0
 18 19  1  0
 19 20  1  0
 19 23  2  0
 20 33  1  0
 21 22  1  0
 22 24  2  0
 22 42  1  0
 23 24  1  0
 24 25  1  0
 25 34  1  0
 26 27  1  0
 30 31  2  0
 30 32  1  0
 35 36  1  0
 35 37  1  0
 35 54  1  0
 35 56  1  1
 38 36  1  6
 39 37  1  6
 38 41  1  0
 38 40  1  0
 39 45  1  0
 39 40  1  0
 41 42  1  0
 42 44  1  0
 42 57  1  1
 43 46  1  0
 43 47  1  0
 43 44  2  0
 44 49  1  0
 45 46  1  0
 47 50  2  0
 47 48  1  0
 48 49  1  0
 48 52  2  0
 50 51  1  0
 51 53  2  0
 52 53  1  0
 54 55  1  0
 57 58  2  0
 57 59  1  0
 59 60  1  0
M  END
>  <Formula>  (340) 
C43H57N5O11S

>  <FW>  (340) 
852.0046 (98.0785+753.9261)

>  <DSSTox_CID>  (340) 
29000

>  <NR-Aromatase>  (340) 
0

>  <NR-AR>  (340) 
0

>  <NR-ER>  (340) 
0

>  <SR-ATAD5>  (340) 
1

>  <SR-p53>  (340) 
1

$$$$
NCGC00259096-01
     RDKit          2D

 29 31  0  0  1  0  0  0  0  0999 V2000
    3.5234   -2.5766    0.0000 C   0  0  0  0  0  0  0  0  0  0  0  0
    4.3281   -2.4008    0.0000 C   0  0  0  0  0  0  0  0  0  0  0  0
    2.8877   -2.0491    0.0000 C   0  0  0  0  0  0  0  0  0  0  0  0
    2.1776   -2.4616    0.0000 C   0  0  0  0  0  0  0  0  0  0  0  0
    4.9773   -2.8877    0.0000 C   0  0  0  0  0  0  0  0  0  0  0  0
    1.4472   -2.0491    0.0000 C   0  0  0  0  0  0  0  0  0  0  0  0
    3.1785   -3.3137    0.0000 C   0  0  0  0  0  0  0  0  0  0  0  0
    2.8877   -1.2240    0.0000 C   0  0  0  0  0  0  0  0  0  0  0  0
    4.9773   -3.7127    0.0000 C   0  0  0  0  0  0  0  0  0  0  0  0
    4.6730   -1.6501    0.0000 C   0  0  0  0  0  0  0  0  0  0  0  0
    1.4472   -1.2376    0.0000 C   0  0  0  0  0  0  0  0  0  0  0  0
    3.5234   -4.0508    0.0000 C   0  0  0  0  0  0  0  0  0  0  0  0
    4.3484   -4.2267    0.0000 C   0  0  0  0  0  0  0  0  0  0  0  0
    5.5251   -1.6501    0.0000 N   0  0  0  0  0  0  0  0  0  0  0  0
    2.1776   -0.8251    0.0000 C   0  0  0  0  0  0  0  0  0  0  0  0
    5.9241   -0.9400    0.0000 C   0  0  0  0  0  0  0  0  0  0  0  0
    3.5234   -0.7236    0.0000 C   0  0  0  0  0  0  0  0  0  0  0  0
    5.7280   -4.1117    0.0000 O   0  0  0  0  0  0  0  0  0  0  0  0
    4.3281   -0.9129    0.0000 C   0  0  0  0  0  0  0  0  0  0  0  0
    5.5116   -0.2097    0.0000 O   0  0  0  0  0  0  0  0  0  0  0  0
    2.1776   -3.2867    0.0000 O   0  0  0  0  0  0  0  0  0  0  0  0
    0.7101   -2.4481    0.0000 O   0  0  0  0  0  0  0  0  0  0  0  0
    0.7101   -0.8386    0.0000 O   0  0  0  0  0  0  0  0  0  0  0  0
    4.5648   -5.0247    0.0000 O   0  0  0  0  0  0  0  0  0  0  0  0
    6.7627   -0.9400    0.0000 C   0  0  0  0  0  0  0  0  0  0  0  0
    1.4405   -3.6992    0.0000 C   0  0  0  0  0  0  0  0  0  0  0  0
    0.0000   -2.0017    0.0000 C   0  0  0  0  0  0  0  0  0  0  0  0
    0.7101    0.0000    0.0000 C   0  0  0  0  0  0  0  0  0  0  0  0
    5.3155   -5.0247    0.0000 C   0  0  0  0  0  0  0  0  0  0  0  0
  1  2  1  0
  1  3  1  0
  1  7  2  0
  2  5  2  0
  2 10  1  0
  3  4  2  0
  3  8  1  0
  4  6  1  0
  4 21  1  0
  5  9  1  0
  6 22  1  0
  6 11  2  0
  7 12  1  0
  8 15  2  0
  8 17  1  0
  9 18  2  0
  9 13  1  0
 10 14  1  6
 10 19  1  0
 11 15  1  0
 11 23  1  0
 12 13  2  0
 13 24  1  0
 14 16  1  0
 16 20  2  0
 16 25  1  0
 17 19  1  0
 21 26  1  0
 22 27  1  0
 23 28  1  0
 24 29  1  0
M  END
>  <Formula>  (341) 
C22H25NO6

>  <FW>  (341) 
399.4370

>  <DSSTox_CID>  (341) 
4845

>  <NR-AR>  (341) 
0

>  <SR-ARE>  (341) 
1

>  <SR-ATAD5>  (341) 
1

>  <SR-p53>  (341) 
0

$$$$
NCGC00095172-01
     RDKit          2D

 16 19  0  0  1  0  0  0  0  0999 V2000
    2.0815   -1.9407    0.0000 C   0  0  0  0  0  0  0  0  0  0  0  0
    2.8692   -2.1234    0.0000 C   0  0  0  0  0  0  0  0  0  0  0  0
    1.4346   -3.2878    0.0000 N   0  0  0  0  0  0  0  0  0  0  0  0
    1.4346   -2.4506    0.0000 C   0  0  0  0  0  0  0  0  0  0  0  0
    2.4201   -2.9072    0.0000 C   0  0  0  0  0  0  0  0  0  0  0  0
    2.0206   -1.1264    0.0000 O   0  0  0  0  0  0  0  0  0  0  0  0
    2.0815   -3.8053    0.0000 C   0  0  0  0  0  0  0  0  0  0  0  0
    2.7779   -0.8182    0.0000 C   0  0  0  0  0  0  0  0  0  0  0  0
    3.2878   -1.4232    0.0000 C   0  0  0  0  0  0  0  0  0  0  0  0
    3.2269   -2.8692    0.0000 C   0  0  0  0  0  0  0  0  0  0  0  0
    2.8692   -3.6150    0.0000 C   0  0  0  0  0  0  0  0  0  0  0  0
    3.0100    0.0000    0.0000 O   0  0  0  0  0  0  0  0  0  0  0  0
    0.7154   -3.7063    0.0000 C   0  0  0  0  0  0  0  0  0  0  0  0
    0.7154   -2.0434    0.0000 C   0  0  0  0  0  0  0  0  0  0  0  0
    0.0000   -3.2954    0.0000 C   0  0  0  0  0  0  0  0  0  0  0  0
    0.0000   -2.4506    0.0000 C   0  0  0  0  0  0  0  0  0  0  0  0
  1  2  1  0
  1  4  1  0
  1  5  1  0
  1  6  1  6
  2  9  2  0
  2 10  1  0
  3  4  1  0
  3 13  1  0
  7  3  1  1
  4 14  1  6
  7  5  1  0
  6  8  1  0
  7 11  1  0
  8 12  2  0
  8  9  1  0
 10 11  2  0
 13 15  1  0
 14 16  1  0
 15 16  1  0
M  END
>  <Formula>  (342) 
C13H15NO2

>  <FW>  (342) 
217.2637

>  <DSSTox_CID>  (342) 
25944

>  <NR-AR>  (342) 
0

>  <NR-AR-LBD>  (342) 
0

>  <NR-ER-LBD>  (342) 
0

>  <SR-ATAD5>  (342) 
1

>  <SR-MMP>  (342) 
0

$$$$
NCGC00025125-07
     RDKit          2D

 29 31  0  0  1  0  0  0  0  0999 V2000
    3.5234   -2.5766    0.0000 C   0  0  0  0  0  0  0  0  0  0  0  0
    4.3281   -2.4008    0.0000 C   0  0  0  0  0  0  0  0  0  0  0  0
    2.8877   -2.0491    0.0000 C   0  0  0  0  0  0  0  0  0  0  0  0
    2.1776   -2.4616    0.0000 C   0  0  0  0  0  0  0  0  0  0  0  0
    4.9773   -2.8877    0.0000 C   0  0  0  0  0  0  0  0  0  0  0  0
    1.4472   -2.0491    0.0000 C   0  0  0  0  0  0  0  0  0  0  0  0
    3.1785   -3.3137    0.0000 C   0  0  0  0  0  0  0  0  0  0  0  0
    2.8877   -1.2240    0.0000 C   0  0  0  0  0  0  0  0  0  0  0  0
    4.9773   -3.7127    0.0000 C   0  0  0  0  0  0  0  0  0  0  0  0
    4.6730   -1.6501    0.0000 C   0  0  0  0  0  0  0  0  0  0  0  0
    1.4472   -1.2376    0.0000 C   0  0  0  0  0  0  0  0  0  0  0  0
    3.5234   -4.0508    0.0000 C   0  0  0  0  0  0  0  0  0  0  0  0
    4.3484   -4.2267    0.0000 C   0  0  0  0  0  0  0  0  0  0  0  0
    5.5251   -1.6501    0.0000 N   0  0  0  0  0  0  0  0  0  0  0  0
    2.1776   -0.8251    0.0000 C   0  0  0  0  0  0  0  0  0  0  0  0
    5.9241   -0.9400    0.0000 C   0  0  0  0  0  0  0  0  0  0  0  0
    3.5234   -0.7236    0.0000 C   0  0  0  0  0  0  0  0  0  0  0  0
    5.7280   -4.1117    0.0000 O   0  0  0  0  0  0  0  0  0  0  0  0
    4.3281   -0.9129    0.0000 C   0  0  0  0  0  0  0  0  0  0  0  0
    5.5116   -0.2097    0.0000 O   0  0  0  0  0  0  0  0  0  0  0  0
    2.1776   -3.2867    0.0000 O   0  0  0  0  0  0  0  0  0  0  0  0
    0.7101   -2.4481    0.0000 O   0  0  0  0  0  0  0  0  0  0  0  0
    0.7101   -0.8386    0.0000 O   0  0  0  0  0  0  0  0  0  0  0  0
    4.5648   -5.0247    0.0000 O   0  0  0  0  0  0  0  0  0  0  0  0
    6.7627   -0.9400    0.0000 C   0  0  0  0  0  0  0  0  0  0  0  0
    1.4405   -3.6992    0.0000 C   0  0  0  0  0  0  0  0  0  0  0  0
    0.0000   -2.0017    0.0000 C   0  0  0  0  0  0  0  0  0  0  0  0
    0.7101    0.0000    0.0000 C   0  0  0  0  0  0  0  0  0  0  0  0
    5.3155   -5.0247    0.0000 C   0  0  0  0  0  0  0  0  0  0  0  0
  1  2  1  0
  1  3  1  0
  1  7  2  0
  2  5  2  0
  2 10  1  0
  3  4  2  0
  3  8  1  0
  4  6  1  0
  4 21  1  0
  5  9  1  0
  6 22  1  0
  6 11  2  0
  7 12  1  0
  8 15  2  0
  8 17  1  0
  9 18  2  0
  9 13  1  0
 10 14  1  6
 10 19  1  0
 11 15  1  0
 11 23  1  0
 12 13  2  0
 13 24  1  0
 14 16  1  0
 16 20  2  0
 16 25  1  0
 17 19  1  0
 21 26  1  0
 22 27  1  0
 23 28  1  0
 24 29  1  0
M  END
>  <Formula>  (343) 
C22H25NO6

>  <FW>  (343) 
399.4370

>  <DSSTox_CID>  (343) 
4845

>  <NR-Aromatase>  (343) 
0

>  <NR-AR>  (343) 
0

>  <NR-ER>  (343) 
0

>  <SR-ATAD5>  (343) 
1

>  <SR-MMP>  (343) 
1

>  <SR-p53>  (343) 
0

$$$$
NCGC00163543-01
     RDKit          2D

 40 43  0  0  1  0  0  0  0  0999 V2000
    2.0995   -6.7060    0.0000 O   0  0  0  0  0  0  0  0  0  0  0  0
    2.3816   -5.9304    0.0000 C   0  0  0  0  0  0  0  0  0  0  0  0
    1.8567   -5.3115    0.0000 C   0  0  0  0  0  0  0  0  0  0  0  0
    1.0420   -5.4447    0.0000 O   0  0  0  0  0  0  0  0  0  0  0  0
    2.1387   -4.5281    0.0000 C   0  0  0  0  0  0  0  0  0  0  0  0
    1.3318   -4.3871    0.0000 O   0  0  0  0  0  0  0  0  0  0  0  0
    2.1387   -3.6977    0.0000 C   0  0  0  0  0  0  0  0  0  0  0  0
    2.8594   -3.2982    0.0000 C   0  0  0  0  0  0  0  0  0  0  0  0
    2.8594   -2.4677    0.0000 O   0  0  0  0  0  0  0  0  0  0  0  0
    2.1387   -2.0525    0.0000 C   0  0  0  0  0  0  0  0  0  0  0  0
    1.4258   -2.4677    0.0000 C   0  0  0  0  0  0  0  0  0  0  0  0
    0.7129   -2.0525    0.0000 C   0  0  0  0  0  0  0  0  0  0  0  0
    0.0000   -2.4677    0.0000 N   0  0  0  0  0  0  0  0  0  0  0  0
    0.7129   -1.2300    0.0000 C   0  0  0  0  0  0  0  0  0  0  0  0
    0.0000   -0.8226    0.0000 O   0  0  0  0  0  0  0  0  0  0  0  0
    1.4258   -0.8226    0.0000 C   0  0  0  0  0  0  0  0  0  0  0  0
    1.4258    0.0000    0.0000 C   0  0  0  0  0  0  0  0  0  0  0  0
    2.1387   -1.2300    0.0000 O   0  0  0  0  0  0  0  0  0  0  0  0
    3.5724   -3.6977    0.0000 C   0  0  0  0  0  0  0  0  0  0  0  0
    4.2774   -3.2982    0.0000 C   0  0  0  0  0  0  0  0  0  0  0  0
    4.2774   -2.4677    0.0000 O   0  0  0  0  0  0  0  0  0  0  0  0
    4.9903   -3.6977    0.0000 C   0  0  0  0  0  0  0  0  0  0  0  0
    5.7032   -3.2982    0.0000 C   0  0  0  0  0  0  0  0  0  0  0  0
    5.7032   -2.4677    0.0000 O   0  0  0  0  0  0  0  0  0  0  0  0
    6.4161   -3.6977    0.0000 C   0  0  0  0  0  0  0  0  0  0  0  0
    7.1291   -3.2982    0.0000 C   0  0  0  0  0  0  0  0  0  0  0  0
    7.1291   -2.4677    0.0000 O   0  0  0  0  0  0  0  0  0  0  0  0
    7.8341   -2.0525    0.0000 C   0  0  0  0  0  0  0  0  0  0  0  0
    7.8341   -3.6977    0.0000 C   0  0  0  0  0  0  0  0  0  0  0  0
    7.8341   -4.5281    0.0000 C   0  0  0  0  0  0  0  0  0  0  0  0
    7.1291   -4.9433    0.0000 C   0  0  0  0  0  0  0  0  0  0  0  0
    6.4161   -4.5281    0.0000 C   0  0  0  0  0  0  0  0  0  0  0  0
    5.7032   -4.9433    0.0000 C   0  0  0  0  0  0  0  0  0  0  0  0
    5.7032   -5.7659    0.0000 O   0  0  0  0  0  0  0  0  0  0  0  0
    4.9903   -4.5281    0.0000 C   0  0  0  0  0  0  0  0  0  0  0  0
    4.2774   -4.9433    0.0000 C   0  0  0  0  0  0  0  0  0  0  0  0
    4.2774   -5.7659    0.0000 O   0  0  0  0  0  0  0  0  0  0  0  0
    3.5724   -4.5281    0.0000 C   0  0  0  0  0  0  0  0  0  0  0  0
    2.8594   -4.9433    0.0000 C   0  0  0  0  0  0  0  0  0  0  0  0
    5.9696   -0.3682    0.0000 Cl  0  0  0  0  0  0  0  0  0  0  0  0
  1  2  1  0
  2  3  1  0
  3  4  2  0
  5  3  1  0
  5  6  1  6
  5  7  1  0
  5 39  1  0
  7  8  1  0
  8  9  1  6
  8 19  1  0
 10  9  1  1
 10 11  1  0
 10 18  1  0
 11 12  1  0
 12 13  1  6
 12 14  1  0
 14 15  1  6
 14 16  1  0
 16 17  1  6
 16 18  1  0
 19 20  1  0
 19 38  2  0
 20 21  1  0
 20 22  2  0
 22 23  1  0
 22 35  1  0
 23 24  2  0
 23 25  1  0
 25 26  2  0
 25 32  1  0
 26 27  1  0
 26 29  1  0
 27 28  1  0
 29 30  2  0
 30 31  1  0
 31 32  2  0
 32 33  1  0
 33 34  2  0
 33 35  1  0
 35 36  2  0
 36 37  1  0
 36 38  1  0
 38 39  1  0
M  END
>  <Formula>  (344) 
C27H30ClNO11

>  <FW>  (344) 
579.9802 (543.5193+36.4609)

>  <DSSTox_CID>  (344) 
10636

>  <NR-AR>  (344) 
0

>  <NR-AR-LBD>  (344) 
1

>  <NR-ER-LBD>  (344) 
1

>  <SR-ATAD5>  (344) 
1

>  <SR-p53>  (344) 
1

$$$$
NCGC00181127-01
     RDKit          2D

 64 71  0  0  1  0  0  0  0  0999 V2000
    3.6182   -1.7507    0.0000 C   0  0  0  0  0  0  0  0  0  0  0  0
    2.8829   -1.3539    0.0000 C   0  0  0  0  0  0  0  0  0  0  0  0
    2.8829   -0.5019    0.0000 C   0  0  0  0  0  0  0  0  0  0  0  0
    4.3185   -1.3539    0.0000 C   0  0  0  0  0  0  0  0  0  0  0  0
    3.5832   -0.1051    0.0000 C   0  0  0  0  0  0  0  0  0  0  0  0
    4.3185   -0.5019    0.0000 C   0  0  0  0  0  0  0  0  0  0  0  0
    4.9488   -1.8558    0.0000 C   0  0  0  0  0  0  0  0  0  0  0  0
    5.7541   -1.6691    0.0000 C   0  0  0  0  0  0  0  0  0  0  0  0
    4.9721    0.0000    0.0000 N   0  0  0  0  0  0  0  0  0  0  0  0
    5.7541   -0.1868    0.0000 C   0  0  0  0  0  0  0  0  0  0  0  0
    6.1160   -0.9220    0.0000 C   0  0  0  0  0  0  0  0  0  0  0  0
    5.2173   -0.8871    0.0000 C   0  0  0  0  0  0  0  0  0  0  0  0
    2.1359   -1.7507    0.0000 N   0  0  0  0  0  0  0  0  0  0  0  0
    1.4356   -0.5019    0.0000 C   0  0  0  0  0  0  0  0  0  0  0  0
    1.4356   -1.3539    0.0000 C   0  0  0  0  0  0  0  0  0  0  0  0
    0.7003   -0.1051    0.0000 C   0  0  0  0  0  0  0  0  0  0  0  0
    0.7003   -1.7507    0.0000 C   0  0  0  0  0  0  0  0  0  0  0  0
    0.0000   -0.5019    0.0000 C   0  0  0  0  0  0  0  0  0  0  0  0
    0.0000   -1.3539    0.0000 C   0  0  0  0  0  0  0  0  0  0  0  0
    6.8396   -0.5369    0.0000 O   0  0  0  0  0  0  0  0  0  0  0  0
    6.8046   -1.3539    0.0000 C   0  0  0  0  0  0  0  0  0  0  0  0
    7.5516   -1.0037    0.0000 C   0  0  0  0  0  0  0  0  0  0  0  0
    7.8200   -3.0930    0.0000 C   0  0  0  0  0  0  0  0  0  0  0  0
    8.5203   -4.3419    0.0000 C   0  0  0  0  0  0  0  0  0  0  0  0
    7.8200   -3.9100    0.0000 C   0  0  0  0  0  0  0  0  0  0  0  0
    9.2206   -3.0930    0.0000 C   0  0  0  0  0  0  0  0  0  0  0  0
    7.0847   -4.2952    0.0000 N   0  0  0  0  0  0  0  0  0  0  0  0
    8.5203   -2.6728    0.0000 C   0  0  0  0  0  0  0  0  0  0  0  0
    6.3844   -3.9100    0.0000 C   0  0  0  0  0  0  0  0  0  0  0  0
    9.2206   -3.9100    0.0000 C   0  0  0  0  0  0  0  0  0  0  0  0
    6.3844   -3.0930    0.0000 C   0  0  0  0  0  0  0  0  0  0  0  0
    4.9488   -3.0930    0.0000 C   0  0  0  0  0  0  0  0  0  0  0  0
    5.6374   -4.2952    0.0000 C   0  0  0  0  0  0  0  0  0  0  0  0
    5.6374   -2.6728    0.0000 C   0  0  0  0  0  0  0  0  0  0  0  0
    8.5203   -1.8558    0.0000 N   0  0  0  0  0  0  0  0  0  0  0  0
    3.4198   -2.4394    0.0000 C   0  0  0  0  0  0  0  0  0  0  0  0
    8.8355   -4.8788    0.0000 C   0  0  0  0  0  0  0  0  0  0  0  0
    4.9488   -3.9100    0.0000 C   0  0  0  0  0  0  0  0  0  0  0  0
    7.0847   -2.6728    0.0000 C   0  0  0  0  0  0  0  0  0  0  0  0
   10.1543   -4.7387    0.0000 O   0  0  0  0  0  0  0  0  0  0  0  0
    9.9560   -2.6728    0.0000 C   0  0  0  0  0  0  0  0  0  0  0  0
   11.1698   -4.7387    0.0000 C   0  0  0  0  0  0  0  0  0  0  0  0
    7.0847   -1.8558    0.0000 C   0  0  0  0  0  0  0  0  0  0  0  0
    8.2869   -5.1238    0.0000 O   0  0  0  0  0  0  0  0  0  0  0  0
    9.9560   -1.8558    0.0000 C   0  0  0  0  0  0  0  0  0  0  0  0
    9.6992   -4.8788    0.0000 O   0  0  0  0  0  0  0  0  0  0  0  0
    2.6378   -2.6728    0.0000 O   0  0  0  0  0  0  0  0  0  0  0  0
   11.6717   -3.8400    0.0000 O   0  0  0  0  0  0  0  0  0  0  0  0
    9.9560   -3.5715    0.0000 C   0  0  0  0  0  0  0  0  0  0  0  0
    7.0380   -5.1589    0.0000 C   0  0  0  0  0  0  0  0  0  0  0  0
    9.2206   -1.4356    0.0000 C   0  0  0  0  0  0  0  0  0  0  0  0
    8.8355   -5.6258    0.0000 O   0  0  0  0  0  0  0  0  0  0  0  0
    3.9684   -2.9529    0.0000 O   0  0  0  0  0  0  0  0  0  0  0  0
    4.2018   -4.2952    0.0000 O   0  0  0  0  0  0  0  0  0  0  0  0
   11.5900   -5.5090    0.0000 C   0  0  0  0  0  0  0  0  0  0  0  0
    3.5365   -3.6766    0.0000 C   0  0  0  0  0  0  0  0  0  0  0  0
    9.5708   -6.0109    0.0000 C   0  0  0  0  0  0  0  0  0  0  0  0
    4.2018   -5.1589    0.0000 C   0  0  0  0  0  0  0  0  0  0  0  0
   10.7029   -3.2097    0.0000 C   0  0  0  0  0  0  0  0  0  0  0  0
    1.5290   -4.0384    0.0000 S   0  0  0  0  0  0  0  0  0  0  0  0
    2.3577   -4.0384    0.0000 O   0  0  0  0  0  0  0  0  0  0  0  0
    0.7120   -4.0384    0.0000 O   0  0  0  0  0  0  0  0  0  0  0  0
    1.5290   -4.8671    0.0000 O   0  0  0  0  0  0  0  0  0  0  0  0
    1.5290   -3.2214    0.0000 O   0  0  0  0  0  0  0  0  0  0  0  0
  1  2  1  0
  1  4  1  0
  1 32  1  0
  1 36  1  1
  2  3  2  0
  2 13  1  0
  3  5  1  0
  3 14  1  0
  7  4  1  1
  5  6  1  0
  9  6  1  1
  7  8  1  0
  7 12  1  0
  8 11  1  0
  9 10  1  0
  9 12  1  0
 10 11  1  0
 11 20  1  1
 11 21  1  0
 13 15  1  0
 14 16  2  0
 14 15  1  0
 15 17  2  0
 16 18  1  0
 17 19  1  0
 18 19  2  0
 21 22  1  0
 23 25  1  0
 23 28  1  0
 23 39  1  1
 23 31  1  0
 24 25  1  0
 24 37  1  0
 24 44  1  1
 24 30  1  0
 25 27  1  6
 26 28  1  0
 26 30  1  0
 26 41  1  0
 26 49  1  6
 27 29  1  0
 27 50  1  0
 28 35  1  1
 29 33  1  0
 29 31  2  0
 30 40  1  1
 31 34  1  0
 32 34  2  0
 32 38  1  0
 33 38  2  0
 35 51  1  0
 35 43  1  0
 36 47  2  0
 36 53  1  0
 37 46  2  0
 37 52  1  0
 38 54  1  0
 39 43  1  0
 40 42  1  0
 41 45  2  0
 42 48  2  0
 42 55  1  0
 45 51  1  0
 49 59  1  0
 52 57  1  0
 53 56  1  0
 54 58  1  0
 60 61  2  0
 60 62  2  0
 60 63  1  0
 60 64  1  0
M  END
>  <Formula>  (345) 
C46H60N4O13S

>  <FW>  (345) 
909.0526 (810.9741+98.0785)

>  <DSSTox_CID>  (345) 
27831

>  <NR-AR>  (345) 
0

>  <NR-AhR>  (345) 
0

>  <SR-ATAD5>  (345) 
1

>  <SR-MMP>  (345) 
1

>  <SR-p53>  (345) 
1

$$$$
NCGC00166035-01
     RDKit          2D

 27 29  0  0  1  0  0  0  0  0999 V2000
    3.5786   -5.2720    0.0000 C   0  0  0  0  0  0  0  0  0  0  0  0
    3.5786   -4.4425    0.0000 O   0  0  0  0  0  0  0  0  0  0  0  0
    2.8588   -4.0311    0.0000 C   0  0  0  0  0  0  0  0  0  0  0  0
    2.1459   -4.4425    0.0000 C   0  0  0  0  0  0  0  0  0  0  0  0
    1.4328   -4.0311    0.0000 C   0  0  0  0  0  0  0  0  0  0  0  0
    1.4328   -3.2016    0.0000 C   0  0  0  0  0  0  0  0  0  0  0  0
    2.1459   -2.7903    0.0000 C   0  0  0  0  0  0  0  0  0  0  0  0
    2.8588   -3.2016    0.0000 C   0  0  0  0  0  0  0  0  0  0  0  0
    3.6335   -2.9000    0.0000 C   0  0  0  0  0  0  0  0  0  0  0  0
    4.0997   -3.5855    0.0000 C   0  0  0  0  0  0  0  0  0  0  0  0
    4.9087   -3.6335    0.0000 C   0  0  0  0  0  0  0  0  0  0  0  0
    5.4914   -3.0508    0.0000 C   0  0  0  0  0  0  0  0  0  0  0  0
    6.2729   -3.2839    0.0000 O   0  0  0  0  0  0  0  0  0  0  0  0
    6.8557   -2.7011    0.0000 C   0  0  0  0  0  0  0  0  0  0  0  0
    5.3612   -2.2281    0.0000 C   0  0  0  0  0  0  0  0  0  0  0  0
    6.0398   -1.7619    0.0000 O   0  0  0  0  0  0  0  0  0  0  0  0
    4.6413   -1.8099    0.0000 C   0  0  0  0  0  0  0  0  0  0  0  0
    3.8734   -2.1115    0.0000 C   0  0  0  0  0  0  0  0  0  0  0  0
    3.4072   -1.4328    0.0000 C   0  0  0  0  0  0  0  0  0  0  0  0
    3.8255   -0.7130    0.0000 N   0  0  0  0  0  0  0  0  0  0  0  0
    3.4072    0.0000    0.0000 C   0  0  0  0  0  0  0  0  0  0  0  0
    2.5983   -1.3780    0.0000 C   0  0  0  0  0  0  0  0  0  0  0  0
    2.0156   -1.9676    0.0000 C   0  0  0  0  0  0  0  0  0  0  0  0
    0.7130   -4.4425    0.0000 O   0  0  0  0  0  0  0  0  0  0  0  0
    0.0000   -4.0311    0.0000 C   0  0  0  0  0  0  0  0  0  0  0  0
    2.1459   -5.2720    0.0000 O   0  0  0  0  0  0  0  0  0  0  0  0
    1.4328   -5.6833    0.0000 C   0  0  0  0  0  0  0  0  0  0  0  0
  1  2  1  0
  2  3  1  0
  3  4  2  0
  3  8  1  0
  4  5  1  0
  4 26  1  0
  5  6  2  0
  5 24  1  0
  6  7  1  0
  7  8  2  0
  7 23  1  0
  8  9  1  0
  9 10  2  0
  9 18  1  0
 10 11  1  0
 11 12  2  0
 12 13  1  0
 12 15  1  0
 13 14  1  0
 15 16  2  0
 15 17  1  0
 17 18  2  0
 18 19  1  0
 19 20  1  6
 19 22  1  0
 20 21  1  0
 22 23  1  0
 24 25  1  0
 26 27  1  0
M  END
>  <Formula>  (346) 
C21H25NO5

>  <FW>  (346) 
371.4269

>  <DSSTox_CID>  (346) 
342

>  <NR-Aromatase>  (346) 
0

>  <NR-AR>  (346) 
0

>  <NR-ER>  (346) 
0

>  <SR-ATAD5>  (346) 
1

>  <SR-MMP>  (346) 
1

>  <SR-p53>  (346) 
1

$$$$
NCGC00188444-01
     RDKit          2D

 46 52  0  0  1  0  0  0  0  0999 V2000
    0.7125   -4.1158    0.0000 P   0  0  0  0  0  0  0  0  0  0  0  0
    0.0000   -3.7126    0.0000 O   0  0  0  0  0  0  0  0  0  0  0  0
    1.4344   -4.5376    0.0000 O   0  0  0  0  0  0  0  0  0  0  0  0
    0.3000   -4.8376    0.0000 O   0  0  0  0  0  0  0  0  0  0  0  0
    2.3907   -1.2750    0.0000 C   0  0  0  0  0  0  0  0  0  0  0  0
    1.9500   -1.9782    0.0000 O   0  0  0  0  0  0  0  0  0  0  0  0
    2.3626   -2.7001    0.0000 C   0  0  0  0  0  0  0  0  0  0  0  0
    3.1876   -2.7001    0.0000 C   0  0  0  0  0  0  0  0  0  0  0  0
    3.6001   -3.4032    0.0000 C   0  0  0  0  0  0  0  0  0  0  0  0
    3.1876   -4.1251    0.0000 C   0  0  0  0  0  0  0  0  0  0  0  0
    2.3626   -4.1251    0.0000 C   0  0  0  0  0  0  0  0  0  0  0  0
    1.9500   -4.8470    0.0000 O   0  0  0  0  0  0  0  0  0  0  0  0
    2.2969   -5.5877    0.0000 C   0  0  0  0  0  0  0  0  0  0  0  0
    1.9500   -3.4032    0.0000 C   0  0  0  0  0  0  0  0  0  0  0  0
    1.1250   -3.4032    0.0000 O   0  0  0  0  0  0  0  0  0  0  0  0
    4.4251   -3.4032    0.0000 C   0  0  0  0  0  0  0  0  0  0  0  0
    4.8376   -2.7001    0.0000 C   0  0  0  0  0  0  0  0  0  0  0  0
    4.4251   -1.9782    0.0000 C   0  0  0  0  0  0  0  0  0  0  0  0
    4.8376   -1.2656    0.0000 C   0  0  0  0  0  0  0  0  0  0  0  0
    4.5845   -0.4781    0.0000 O   0  0  0  0  0  0  0  0  0  0  0  0
    5.2502    0.0000    0.0000 C   0  0  0  0  0  0  0  0  0  0  0  0
    5.9158   -0.4781    0.0000 O   0  0  0  0  0  0  0  0  0  0  0  0
    5.6626   -1.2656    0.0000 C   0  0  0  0  0  0  0  0  0  0  0  0
    6.0752   -1.9782    0.0000 C   0  0  0  0  0  0  0  0  0  0  0  0
    5.6626   -2.7001    0.0000 C   0  0  0  0  0  0  0  0  0  0  0  0
    6.0752   -3.4032    0.0000 C   0  0  0  0  0  0  0  0  0  0  0  0
    6.9002   -3.4032    0.0000 O   0  0  0  0  0  0  0  0  0  0  0  0
    7.3127   -4.1251    0.0000 C   0  0  0  0  0  0  0  0  0  0  0  0
    6.9002   -4.8470    0.0000 O   0  0  0  0  0  0  0  0  0  0  0  0
    7.3127   -5.5501    0.0000 C   0  0  0  0  0  0  0  0  0  0  0  0
    6.9002   -6.2627    0.0000 C   0  0  0  0  0  0  0  0  0  0  0  0
    7.3127   -6.9845    0.0000 O   0  0  0  0  0  0  0  0  0  0  0  0
    8.1471   -6.9845    0.0000 C   0  0  0  0  0  0  0  0  0  0  0  0
    8.5502   -7.6970    0.0000 C   0  0  0  0  0  0  0  0  0  0  0  0
    8.5502   -6.2627    0.0000 O   0  0  0  0  0  0  0  0  0  0  0  0
    8.1471   -5.5501    0.0000 C   0  0  0  0  0  0  0  0  0  0  0  0
    8.5502   -4.8470    0.0000 C   0  0  0  0  0  0  0  0  0  0  0  0
    9.3752   -4.8470    0.0000 O   0  0  0  0  0  0  0  0  0  0  0  0
    8.1471   -4.1251    0.0000 C   0  0  0  0  0  0  0  0  0  0  0  0
    8.5502   -3.4032    0.0000 O   0  0  0  0  0  0  0  0  0  0  0  0
    5.6626   -4.1251    0.0000 C   0  0  0  0  0  0  0  0  0  0  0  0
    5.9158   -4.9033    0.0000 C   0  0  0  0  0  0  0  0  0  0  0  0
    5.2502   -5.3908    0.0000 O   0  0  0  0  0  0  0  0  0  0  0  0
    4.5845   -4.9033    0.0000 C   0  0  0  0  0  0  0  0  0  0  0  0
    3.7970   -5.1658    0.0000 O   0  0  0  0  0  0  0  0  0  0  0  0
    4.8376   -4.1251    0.0000 C   0  0  0  0  0  0  0  0  0  0  0  0
  1  2  1  0
  1  3  2  0
  1  4  1  0
  1 15  1  0
  5  6  1  0
  6  7  1  0
  7  8  2  0
  7 14  1  0
  8  9  1  0
  9 10  2  0
 16  9  1  6
 10 11  1  0
 11 12  1  0
 11 14  2  0
 12 13  1  0
 14 15  1  0
 16 17  1  0
 16 46  1  0
 17 18  2  0
 17 25  1  0
 18 19  1  0
 19 20  1  0
 19 23  2  0
 20 21  1  0
 21 22  1  0
 22 23  1  0
 23 24  1  0
 24 25  2  0
 25 26  1  0
 26 27  1  0
 26 41  1  0
 28 27  1  1
 28 29  1  0
 28 39  1  0
 30 29  1  0
 30 31  1  1
 30 36  1  0
 31 32  1  0
 32 33  1  0
 33 34  1  6
 33 35  1  0
 36 35  1  6
 36 37  1  0
 37 38  1  1
 37 39  1  0
 39 40  1  6
 41 42  1  0
 41 46  1  0
 42 43  1  0
 43 44  1  0
 44 45  2  0
 46 44  1  6
M  END
>  <Formula>  (347) 
C29H33O16P

>  <FW>  (347) 
668.5365

>  <DSSTox_CID>  (347) 
28571

>  <NR-Aromatase>  (347) 
0

>  <NR-AR>  (347) 
0

>  <NR-AR-LBD>  (347) 
0

>  <NR-ER>  (347) 
1

>  <SR-ATAD5>  (347) 
1

>  <SR-MMP>  (347) 
0

>  <SR-p53>  (347) 
1

$$$$
NCGC00022001-05
     RDKit          2D

 30 34  0  0  1  0  0  0  0  0999 V2000
    5.7835   -1.9836    0.0000 C   0  0  0  0  0  0  0  0  0  0  0  0
    4.9590   -1.9836    0.0000 O   0  0  0  0  0  0  0  0  0  0  0  0
    4.5437   -2.7027    0.0000 C   0  0  0  0  0  0  0  0  0  0  0  0
    4.9590   -3.4155    0.0000 C   0  0  0  0  0  0  0  0  0  0  0  0
    5.7835   -3.4155    0.0000 O   0  0  0  0  0  0  0  0  0  0  0  0
    6.1988   -4.1346    0.0000 C   0  0  0  0  0  0  0  0  0  0  0  0
    4.5437   -4.1346    0.0000 C   0  0  0  0  0  0  0  0  0  0  0  0
    3.7193   -4.1346    0.0000 C   0  0  0  0  0  0  0  0  0  0  0  0
    3.3040   -3.4155    0.0000 C   0  0  0  0  0  0  0  0  0  0  0  0
    3.7193   -2.7027    0.0000 C   0  0  0  0  0  0  0  0  0  0  0  0
    2.4795   -3.4155    0.0000 C   0  0  0  0  0  0  0  0  0  0  0  0
    2.0642   -4.1346    0.0000 C   0  0  0  0  0  0  0  0  0  0  0  0
    1.2398   -4.1346    0.0000 C   0  0  0  0  0  0  0  0  0  0  0  0
    0.9856   -4.9219    0.0000 C   0  0  0  0  0  0  0  0  0  0  0  0
    1.6551   -5.4053    0.0000 O   0  0  0  0  0  0  0  0  0  0  0  0
    2.3246   -4.9219    0.0000 C   0  0  0  0  0  0  0  0  0  0  0  0
    3.1056   -5.1760    0.0000 O   0  0  0  0  0  0  0  0  0  0  0  0
    0.8244   -3.4155    0.0000 C   0  0  0  0  0  0  0  0  0  0  0  0
    0.0000   -3.4155    0.0000 O   0  0  0  0  0  0  0  0  0  0  0  0
    1.2398   -2.7027    0.0000 C   0  0  0  0  0  0  0  0  0  0  0  0
    0.8244   -1.9836    0.0000 C   0  0  0  0  0  0  0  0  0  0  0  0
    1.2398   -1.2708    0.0000 C   0  0  0  0  0  0  0  0  0  0  0  0
    2.0642   -1.2708    0.0000 C   0  0  0  0  0  0  0  0  0  0  0  0
    2.3246   -0.4835    0.0000 O   0  0  0  0  0  0  0  0  0  0  0  0
    1.6551    0.0000    0.0000 C   0  0  0  0  0  0  0  0  0  0  0  0
    0.9856   -0.4835    0.0000 O   0  0  0  0  0  0  0  0  0  0  0  0
    2.4795   -1.9836    0.0000 C   0  0  0  0  0  0  0  0  0  0  0  0
    2.0642   -2.7027    0.0000 C   0  0  0  0  0  0  0  0  0  0  0  0
    4.9590   -4.8475    0.0000 O   0  0  0  0  0  0  0  0  0  0  0  0
    5.7835   -4.8475    0.0000 C   0  0  0  0  0  0  0  0  0  0  0  0
  1  2  1  0
  2  3  1  0
  3  4  2  0
  3 10  1  0
  4  5  1  0
  4  7  1  0
  5  6  1  0
  7  8  2  0
  7 29  1  0
  8  9  1  0
  9 10  2  0
 11  9  1  1
 11 12  1  0
 11 28  1  0
 12 13  1  0
 12 16  1  1
 13 14  1  6
 13 18  1  0
 14 15  1  0
 15 16  1  0
 16 17  2  0
 18 19  1  1
 18 20  1  0
 20 21  2  0
 20 28  1  0
 21 22  1  0
 22 23  2  0
 22 26  1  0
 23 24  1  0
 23 27  1  0
 24 25  1  0
 25 26  1  0
 27 28  2  0
 29 30  1  0
M  END
>  <Formula>  (348) 
C22H22O8

>  <FW>  (348) 
414.4053

>  <DSSTox_CID>  (348) 
25645

>  <NR-Aromatase>  (348) 
0

>  <NR-AR>  (348) 
0

>  <NR-ER>  (348) 
0

>  <SR-ATAD5>  (348) 
1

>  <SR-MMP>  (348) 
1

>  <SR-p53>  (348) 
0

$$$$
NCGC00159551-01
     RDKit          2D

 31 35  0  0  1  0  0  0  0  0999 V2000
    2.0730   -2.6653    0.0000 C   0  0  0  0  0  0  0  0  0  0  0  0
    1.4327   -2.1450    0.0000 C   0  0  0  0  0  0  0  0  0  0  0  0
    1.8729   -3.4577    0.0000 C   0  0  0  0  0  0  0  0  0  0  0  0
    2.8734   -2.4732    0.0000 N   0  0  0  0  0  0  0  0  0  0  0  0
    1.4327   -1.3207    0.0000 C   0  0  0  0  0  0  0  0  0  0  0  0
    0.7124   -2.5532    0.0000 C   0  0  0  0  0  0  0  0  0  0  0  0
    2.4892   -4.0259    0.0000 C   0  0  0  0  0  0  0  0  0  0  0  0
    1.0885   -3.7058    0.0000 C   0  0  0  0  0  0  0  0  0  0  0  0
    3.2336   -1.7288    0.0000 C   0  0  0  0  0  0  0  0  0  0  0  0
    2.0730   -0.8084    0.0000 N   0  0  0  0  0  0  0  0  0  0  0  0
    0.7124   -0.9044    0.0000 C   0  0  0  0  0  0  0  0  0  0  0  0
    0.0000   -2.1450    0.0000 C   0  0  0  0  0  0  0  0  0  0  0  0
    2.3131   -4.8183    0.0000 C   0  0  0  0  0  0  0  0  0  0  0  0
    0.9204   -4.5141    0.0000 C   0  0  0  0  0  0  0  0  0  0  0  0
    2.8734   -0.9844    0.0000 C   0  0  0  0  0  0  0  0  0  0  0  0
    4.0580   -1.7288    0.0000 N   0  0  0  0  0  0  0  0  0  0  0  0
    1.8729    0.0000    0.0000 C   0  0  0  0  0  0  0  0  0  0  0  0
    0.0000   -1.3207    0.0000 C   0  0  0  0  0  0  0  0  0  0  0  0
    1.5207   -5.0664    0.0000 C   0  0  0  0  0  0  0  0  0  0  0  0
    3.3936   -0.3281    0.0000 O   0  0  0  0  0  0  0  0  0  0  0  0
    4.4821   -2.4412    0.0000 C   0  0  0  0  0  0  0  0  0  0  0  0
    5.3065   -2.4412    0.0000 C   0  0  0  0  0  0  0  0  0  0  0  0
    4.0580   -3.1695    0.0000 O   0  0  0  0  0  0  0  0  0  0  0  0
    5.7787   -1.7768    0.0000 C   0  0  0  0  0  0  0  0  0  0  0  0
    5.7787   -3.1215    0.0000 N   0  0  0  0  0  0  0  0  0  0  0  0
    6.5711   -2.0410    0.0000 C   0  0  0  0  0  0  0  0  0  0  0  0
    6.5711   -2.8654    0.0000 C   0  0  0  0  0  0  0  0  0  0  0  0
    7.2755   -1.6088    0.0000 C   0  0  0  0  0  0  0  0  0  0  0  0
    7.2755   -3.2656    0.0000 C   0  0  0  0  0  0  0  0  0  0  0  0
    8.0038   -2.0410    0.0000 C   0  0  0  0  0  0  0  0  0  0  0  0
    8.0038   -2.8654    0.0000 C   0  0  0  0  0  0  0  0  0  0  0  0
  1  2  1  0
  1  3  1  0
  1  4  2  0
  2  5  2  0
  2  6  1  0
  3  7  2  0
  3  8  1  0
  4  9  1  0
  5 10  1  0
  5 11  1  0
  6 12  2  0
  7 13  1  0
  8 14  2  0
  9 15  1  0
  9 16  1  1
 10 17  1  0
 10 15  1  0
 11 18  2  0
 12 18  1  0
 13 19  2  0
 14 19  1  0
 15 20  2  0
 16 21  1  0
 21 22  1  0
 21 23  2  0
 22 24  2  0
 22 25  1  0
 24 26  1  0
 25 27  1  0
 26 28  2  0
 26 27  1  0
 27 29  2  0
 28 30  1  0
 29 31  1  0
 30 31  2  0
M  END
>  <Formula>  (349) 
C25H20N4O2

>  <FW>  (349) 
408.4519

>  <DSSTox_CID>  (349) 
26092

>  <NR-Aromatase>  (349) 
1

>  <NR-AR>  (349) 
0

>  <NR-AR-LBD>  (349) 
0

>  <NR-ER-LBD>  (349) 
0

>  <NR-AhR>  (349) 
1

>  <SR-ATAD5>  (349) 
1

>  <SR-MMP>  (349) 
1

$$$$
NCGC00257406-01
     RDKit          2D

 39 43  0  0  0  0  0  0  0  0999 V2000
    7.5587   -1.2264    0.0000 C   0  0  0  0  0  0  0  0  0  0  0  0
    7.5587   -0.4014    0.0000 O   0  0  0  0  0  0  0  0  0  0  0  0
    6.8228   -1.6388    0.0000 C   0  0  0  0  0  0  0  0  0  0  0  0
    6.8340   -2.4638    0.0000 C   0  0  0  0  0  0  0  0  0  0  0  0
    6.1205   -1.2152    0.0000 C   0  0  0  0  0  0  0  0  0  0  0  0
    6.1205   -2.8763    0.0000 C   0  0  0  0  0  0  0  0  0  0  0  0
    5.3958   -1.6388    0.0000 C   0  0  0  0  0  0  0  0  0  0  0  0
    5.3958   -2.4526    0.0000 C   0  0  0  0  0  0  0  0  0  0  0  0
    8.2610   -1.6500    0.0000 N   0  0  0  0  0  0  0  0  0  0  0  0
    4.6935   -2.8763    0.0000 N   0  0  0  0  0  0  0  0  0  0  0  0
    1.9175   -2.9990    0.0000 N   0  0  0  0  0  0  0  0  0  0  0  0
    2.5530   -2.4861    0.0000 C   0  0  0  0  0  0  0  0  0  0  0  0
    2.5530   -1.6611    0.0000 C   0  0  0  0  0  0  0  0  0  0  0  0
    1.8952   -1.1483    0.0000 N   0  0  0  0  0  0  0  0  0  0  0  0
    1.0926   -1.3378    0.0000 C   0  0  0  0  0  0  0  0  0  0  0  0
    0.7469   -2.0848    0.0000 C   0  0  0  0  0  0  0  0  0  0  0  0
    1.1149   -2.8206    0.0000 C   0  0  0  0  0  0  0  0  0  0  0  0
    3.9800   -1.6500    0.0000 N   0  0  0  0  0  0  0  0  0  0  0  0
    3.2665   -2.8875    0.0000 N   0  0  0  0  0  0  0  0  0  0  0  0
    3.9800   -2.4749    0.0000 C   0  0  0  0  0  0  0  0  0  0  0  0
    3.2553   -1.2375    0.0000 C   0  0  0  0  0  0  0  0  0  0  0  0
    2.0959   -3.7905    0.0000 C   0  0  0  0  0  0  0  0  0  0  0  0
    1.5608   -4.4259    0.0000 C   0  0  0  0  0  0  0  0  0  0  0  0
    1.9844   -5.1283    0.0000 C   0  0  0  0  0  0  0  0  0  0  0  0
    2.7983   -4.9388    0.0000 C   0  0  0  0  0  0  0  0  0  0  0  0
    2.8652   -4.1249    0.0000 C   0  0  0  0  0  0  0  0  0  0  0  0
    0.0111   -2.4415    0.0000 F   0  0  0  0  0  0  0  0  0  0  0  0
    0.0000   -1.7280    0.0000 F   0  0  0  0  0  0  0  0  0  0  0  0
    2.0736   -0.3456    0.0000 C   0  0  0  0  0  0  0  0  0  0  0  0
    0.5797   -0.6912    0.0000 O   0  0  0  0  0  0  0  0  0  0  0  0
    6.1205   -3.7013    0.0000 O   0  0  0  0  0  0  0  0  0  0  0  0
    6.8340   -4.1138    0.0000 C   0  0  0  0  0  0  0  0  0  0  0  0
   10.4238   -0.4125    0.0000 N   0  0  0  0  0  0  0  0  0  0  0  0
   10.4238   -1.2375    0.0000 C   0  0  0  0  0  0  0  0  0  0  0  0
    9.7103    0.0000    0.0000 C   0  0  0  0  0  0  0  0  0  0  0  0
    9.6991   -1.6611    0.0000 C   0  0  0  0  0  0  0  0  0  0  0  0
    8.9856   -0.4014    0.0000 C   0  0  0  0  0  0  0  0  0  0  0  0
    8.9856   -1.2375    0.0000 C   0  0  0  0  0  0  0  0  0  0  0  0
   11.1485   -0.0111    0.0000 C   0  0  0  0  0  0  0  0  0  0  0  0
  1  2  2  0
  1  3  1  0
  1  9  1  0
  3  4  2  0
  3  5  1  0
  4  6  1  0
  5  7  2  0
  6  8  2  0
  6 31  1  0
  7  8  1  0
  8 10  1  0
  9 38  1  0
 10 20  1  0
 11 12  1  0
 11 17  1  0
 11 22  1  0
 12 13  2  0
 12 19  1  0
 13 14  1  0
 13 21  1  0
 14 15  1  0
 14 29  1  0
 15 16  1  0
 15 30  2  0
 16 17  1  0
 16 27  1  0
 16 28  1  0
 18 20  1  0
 18 21  2  0
 19 20  2  0
 22 23  1  0
 22 26  1  0
 23 24  1  0
 24 25  1  0
 25 26  1  0
 31 32  1  0
 33 34  1  0
 33 35  1  0
 33 39  1  0
 34 36  1  0
 35 37  1  0
 36 38  1  0
 37 38  1  0
M  END
>  <Formula>  (350) 
C27H35F2N7O3

>  <FW>  (350) 
543.6087

>  <DSSTox_CID>  (350) 
28485

>  <NR-AR>  (350) 
0

>  <NR-ER-LBD>  (350) 
0

>  <NR-PPAR-gamma>  (350) 
0

>  <NR-AhR>  (350) 
0

>  <SR-ATAD5>  (350) 
1

>  <SR-HSE>  (350) 
0

$$$$
NCGC00258711-01
     RDKit          2D

 39 42  0  0  1  0  0  0  0  0999 V2000
    5.0456   -5.0061    0.0000 C   0  0  0  0  0  0  0  0  0  0  0  0
    5.0456   -4.1678    0.0000 C   0  0  0  0  0  0  0  0  0  0  0  0
    5.7653   -3.7644    0.0000 C   0  0  0  0  0  0  0  0  0  0  0  0
    5.7653   -5.4094    0.0000 C   0  0  0  0  0  0  0  0  0  0  0  0
    3.6458   -4.1678    0.0000 C   0  0  0  0  0  0  0  0  0  0  0  0
    3.6458   -5.0061    0.0000 C   0  0  0  0  0  0  0  0  0  0  0  0
    6.4771   -4.1678    0.0000 C   0  0  0  0  0  0  0  0  0  0  0  0
    4.3418   -5.4094    0.0000 C   0  0  0  0  0  0  0  0  0  0  0  0
    4.3418   -3.7644    0.0000 C   0  0  0  0  0  0  0  0  0  0  0  0
    6.4771   -5.0061    0.0000 C   0  0  0  0  0  0  0  0  0  0  0  0
    2.2144   -5.0061    0.0000 C   0  0  0  0  0  0  0  0  0  0  0  0
    2.9262   -3.7644    0.0000 C   0  0  0  0  0  0  0  0  0  0  0  0
    2.9262   -5.4094    0.0000 C   0  0  0  0  0  0  0  0  0  0  0  0
    2.2144   -4.1678    0.0000 C   0  0  0  0  0  0  0  0  0  0  0  0
    2.9262   -2.5307    0.0000 O   0  0  0  0  0  0  0  0  0  0  0  0
    1.4789   -5.4252    0.0000 C   0  0  0  0  0  0  0  0  0  0  0  0
    5.7653   -6.2398    0.0000 O   0  0  0  0  0  0  0  0  0  0  0  0
    5.7653   -2.9420    0.0000 O   0  0  0  0  0  0  0  0  0  0  0  0
    7.1967   -3.7644    0.0000 C   0  0  0  0  0  0  0  0  0  0  0  0
    0.7592   -5.0061    0.0000 O   0  0  0  0  0  0  0  0  0  0  0  0
    4.3418   -6.2398    0.0000 O   0  0  0  0  0  0  0  0  0  0  0  0
    4.3418   -2.9420    0.0000 O   0  0  0  0  0  0  0  0  0  0  0  0
    1.3523   -4.4209    0.0000 O   0  0  0  0  0  0  0  0  0  0  0  0
    7.1967   -5.4094    0.0000 C   0  0  0  0  0  0  0  0  0  0  0  0
    7.1967   -2.9420    0.0000 O   0  0  0  0  0  0  0  0  0  0  0  0
    7.8768   -5.0061    0.0000 C   0  0  0  0  0  0  0  0  0  0  0  0
    7.8768   -4.1678    0.0000 C   0  0  0  0  0  0  0  0  0  0  0  0
    1.4789   -6.2636    0.0000 C   0  0  0  0  0  0  0  0  0  0  0  0
    7.9085   -2.5307    0.0000 C   0  0  0  0  0  0  0  0  0  0  0  0
    2.1986   -2.0958    0.0000 C   0  0  0  0  0  0  0  0  0  0  0  0
    1.4631   -2.5307    0.0000 C   0  0  0  0  0  0  0  0  0  0  0  0
    2.1986   -1.2575    0.0000 O   0  0  0  0  0  0  0  0  0  0  0  0
    0.7434   -2.0958    0.0000 C   0  0  0  0  0  0  0  0  0  0  0  0
    1.4631   -0.8383    0.0000 C   0  0  0  0  0  0  0  0  0  0  0  0
    0.7434   -1.2575    0.0000 C   0  0  0  0  0  0  0  0  0  0  0  0
    0.0000   -2.5307    0.0000 N   0  0  0  0  0  0  0  0  0  0  0  0
    0.0000   -0.8383    0.0000 O   0  0  0  0  0  0  0  0  0  0  0  0
    1.4631    0.0000    0.0000 C   0  0  0  0  0  0  0  0  0  0  0  0
    3.2030   -6.2636    0.0000 Cl  0  0  0  0  0  0  0  0  0  0  0  0
  1  2  2  0
  1  4  1  0
  1  8  1  0
  2  3  1  0
  2  9  1  0
  3 18  2  0
  3  7  1  0
  4 10  1  0
  4 17  2  0
  5  6  1  0
  5 12  1  0
  5  9  2  0
  6  8  2  0
  6 13  1  0
  7 10  2  0
  7 19  1  0
  8 21  1  0
  9 22  1  0
 10 24  1  0
 11 13  1  0
 11 14  1  0
 11 16  1  0
 11 23  1  6
 12 15  1  6
 12 14  1  0
 30 15  1  1
 16 20  2  0
 16 28  1  0
 19 25  1  0
 19 27  2  0
 24 26  2  0
 25 29  1  0
 26 27  1  0
 30 31  1  0
 30 32  1  0
 31 33  1  0
 32 34  1  0
 33 35  1  0
 33 36  1  6
 34 35  1  0
 34 38  1  6
 35 37  1  6
M  END
>  <Formula>  (351) 
C27H30ClNO10

>  <FW>  (351) 
563.9808 (527.5199+36.4609)

>  <DSSTox_CID>  (351) 
13382

>  <NR-Aromatase>  (351) 
1

>  <NR-AR>  (351) 
0

>  <NR-AR-LBD>  (351) 
1

>  <NR-ER-LBD>  (351) 
1

>  <SR-ATAD5>  (351) 
1

>  <SR-p53>  (351) 
1

$$$$
NCGC00159344-02
     RDKit          2D

 37 41  0  0  1  0  0  0  0  0999 V2000
    2.8520   -1.2375    0.0000 C   0  0  0  0  0  0  0  0  0  0  0  0
    2.8520   -2.0697    0.0000 C   0  0  0  0  0  0  0  0  0  0  0  0
    2.1336   -2.4750    0.0000 C   0  0  0  0  0  0  0  0  0  0  0  0
    2.1336   -0.8250    0.0000 C   0  0  0  0  0  0  0  0  0  0  0  0
    4.2602   -2.0697    0.0000 C   0  0  0  0  0  0  0  0  0  0  0  0
    4.2602   -1.2375    0.0000 C   0  0  0  0  0  0  0  0  0  0  0  0
    1.4224   -2.0697    0.0000 C   0  0  0  0  0  0  0  0  0  0  0  0
    3.5561   -0.8250    0.0000 C   0  0  0  0  0  0  0  0  0  0  0  0
    3.5561   -2.4750    0.0000 C   0  0  0  0  0  0  0  0  0  0  0  0
    1.4224   -1.2375    0.0000 C   0  0  0  0  0  0  0  0  0  0  0  0
    5.6897   -1.2375    0.0000 C   0  0  0  0  0  0  0  0  0  0  0  0
    4.9643   -2.4750    0.0000 C   0  0  0  0  0  0  0  0  0  0  0  0
    4.9643   -0.8250    0.0000 C   0  0  0  0  0  0  0  0  0  0  0  0
    5.6897   -2.0697    0.0000 C   0  0  0  0  0  0  0  0  0  0  0  0
    4.9643   -3.7766    0.0000 O   0  0  0  0  0  0  0  0  0  0  0  0
    6.4081   -0.8250    0.0000 C   0  0  0  0  0  0  0  0  0  0  0  0
    2.1336    0.0000    0.0000 O   0  0  0  0  0  0  0  0  0  0  0  0
    2.1336   -3.2929    0.0000 O   0  0  0  0  0  0  0  0  0  0  0  0
    0.7183   -2.4750    0.0000 C   0  0  0  0  0  0  0  0  0  0  0  0
    7.1121   -1.2375    0.0000 O   0  0  0  0  0  0  0  0  0  0  0  0
    3.5561    0.0000    0.0000 O   0  0  0  0  0  0  0  0  0  0  0  0
    3.5561   -3.2929    0.0000 O   0  0  0  0  0  0  0  0  0  0  0  0
    6.5077   -1.7780    0.0000 O   0  0  0  0  0  0  0  0  0  0  0  0
    0.7183   -0.8250    0.0000 C   0  0  0  0  0  0  0  0  0  0  0  0
    0.7183   -3.2929    0.0000 O   0  0  0  0  0  0  0  0  0  0  0  0
    0.0000   -1.2375    0.0000 C   0  0  0  0  0  0  0  0  0  0  0  0
    0.0000   -2.0697    0.0000 C   0  0  0  0  0  0  0  0  0  0  0  0
    6.4081    0.0000    0.0000 C   0  0  0  0  0  0  0  0  0  0  0  0
    4.2602   -4.6016    0.0000 C   0  0  0  0  0  0  0  0  0  0  0  0
    4.2602   -5.4266    0.0000 C   0  0  0  0  0  0  0  0  0  0  0  0
    3.5490   -4.1820    0.0000 O   0  0  0  0  0  0  0  0  0  0  0  0
    3.5490   -5.8533    0.0000 C   0  0  0  0  0  0  0  0  0  0  0  0
    2.8235   -4.6016    0.0000 C   0  0  0  0  0  0  0  0  0  0  0  0
    2.8235   -5.4266    0.0000 C   0  0  0  0  0  0  0  0  0  0  0  0
    3.5490   -6.6783    0.0000 N   0  0  0  0  0  0  0  0  0  0  0  0
    2.1052   -5.8533    0.0000 O   0  0  0  0  0  0  0  0  0  0  0  0
    2.1052   -4.1820    0.0000 C   0  0  0  0  0  0  0  0  0  0  0  0
  1  2  2  0
  1  4  1  0
  1  8  1  0
  2  3  1  0
  2  9  1  0
  3 18  2  0
  3  7  1  0
  4 10  1  0
  4 17  2  0
  5  6  1  0
  5 12  1  0
  5  9  2  0
  6  8  2  0
  6 13  1  0
  7 10  2  0
  7 19  1  0
  8 21  1  0
  9 22  1  0
 10 24  1  0
 11 13  1  0
 11 14  1  0
 11 16  1  0
 11 23  1  6
 12 15  1  6
 12 14  1  0
 29 15  1  1
 16 20  2  0
 16 28  1  0
 19 25  1  0
 19 27  2  0
 24 26  2  0
 26 27  1  0
 29 30  1  0
 29 31  1  0
 30 32  1  0
 31 33  1  0
 32 34  1  0
 32 35  1  6
 33 34  1  0
 33 37  1  6
 34 36  1  6
M  END
>  <Formula>  (352) 
C26H27NO10

>  <FW>  (352) 
513.4933

>  <DSSTox_CID>  (352) 
2742

>  <NR-Aromatase>  (352) 
1

>  <NR-AR>  (352) 
0

>  <NR-AR-LBD>  (352) 
1

>  <NR-ER-LBD>  (352) 
1

>  <SR-ATAD5>  (352) 
1

>  <SR-MMP>  (352) 
1

>  <SR-p53>  (352) 
1

$$$$
NCGC00160675-01
     RDKit          2D

 37 41  0  0  1  0  0  0  0  0999 V2000
    2.8520   -1.2375    0.0000 C   0  0  0  0  0  0  0  0  0  0  0  0
    2.8520   -2.0697    0.0000 C   0  0  0  0  0  0  0  0  0  0  0  0
    2.1336   -2.4750    0.0000 C   0  0  0  0  0  0  0  0  0  0  0  0
    2.1336   -0.8250    0.0000 C   0  0  0  0  0  0  0  0  0  0  0  0
    4.2602   -2.0697    0.0000 C   0  0  0  0  0  0  0  0  0  0  0  0
    4.2602   -1.2375    0.0000 C   0  0  0  0  0  0  0  0  0  0  0  0
    1.4224   -2.0697    0.0000 C   0  0  0  0  0  0  0  0  0  0  0  0
    3.5561   -0.8250    0.0000 C   0  0  0  0  0  0  0  0  0  0  0  0
    3.5561   -2.4750    0.0000 C   0  0  0  0  0  0  0  0  0  0  0  0
    1.4224   -1.2375    0.0000 C   0  0  0  0  0  0  0  0  0  0  0  0
    5.6897   -1.2375    0.0000 C   0  0  0  0  0  0  0  0  0  0  0  0
    4.9643   -2.4750    0.0000 C   0  0  0  0  0  0  0  0  0  0  0  0
    4.9643   -0.8250    0.0000 C   0  0  0  0  0  0  0  0  0  0  0  0
    5.6897   -2.0697    0.0000 C   0  0  0  0  0  0  0  0  0  0  0  0
    4.9643   -3.7766    0.0000 O   0  0  0  0  0  0  0  0  0  0  0  0
    6.4081   -0.8250    0.0000 C   0  0  0  0  0  0  0  0  0  0  0  0
    2.1336    0.0000    0.0000 O   0  0  0  0  0  0  0  0  0  0  0  0
    2.1336   -3.2929    0.0000 O   0  0  0  0  0  0  0  0  0  0  0  0
    0.7183   -2.4750    0.0000 C   0  0  0  0  0  0  0  0  0  0  0  0
    7.1121   -1.2375    0.0000 O   0  0  0  0  0  0  0  0  0  0  0  0
    3.5561    0.0000    0.0000 O   0  0  0  0  0  0  0  0  0  0  0  0
    3.5561   -3.2929    0.0000 O   0  0  0  0  0  0  0  0  0  0  0  0
    6.5077   -1.7780    0.0000 O   0  0  0  0  0  0  0  0  0  0  0  0
    0.7183   -0.8250    0.0000 C   0  0  0  0  0  0  0  0  0  0  0  0
    0.7183   -3.2929    0.0000 O   0  0  0  0  0  0  0  0  0  0  0  0
    0.0000   -1.2375    0.0000 C   0  0  0  0  0  0  0  0  0  0  0  0
    0.0000   -2.0697    0.0000 C   0  0  0  0  0  0  0  0  0  0  0  0
    6.4081    0.0000    0.0000 C   0  0  0  0  0  0  0  0  0  0  0  0
    4.2602   -4.6016    0.0000 C   0  0  0  0  0  0  0  0  0  0  0  0
    4.2602   -5.4266    0.0000 C   0  0  0  0  0  0  0  0  0  0  0  0
    3.5490   -4.1820    0.0000 O   0  0  0  0  0  0  0  0  0  0  0  0
    3.5490   -5.8533    0.0000 C   0  0  0  0  0  0  0  0  0  0  0  0
    2.8235   -4.6016    0.0000 C   0  0  0  0  0  0  0  0  0  0  0  0
    2.8235   -5.4266    0.0000 C   0  0  0  0  0  0  0  0  0  0  0  0
    3.5490   -6.6783    0.0000 N   0  0  0  0  0  0  0  0  0  0  0  0
    2.1052   -5.8533    0.0000 O   0  0  0  0  0  0  0  0  0  0  0  0
    2.1052   -4.1820    0.0000 C   0  0  0  0  0  0  0  0  0  0  0  0
  1  2  2  0
  1  4  1  0
  1  8  1  0
  2  3  1  0
  2  9  1  0
  3 18  2  0
  3  7  1  0
  4 10  1  0
  4 17  2  0
  5  6  1  0
  5 12  1  0
  5  9  2  0
  6  8  2  0
  6 13  1  0
  7 10  2  0
  7 19  1  0
  8 21  1  0
  9 22  1  0
 10 24  1  0
 11 13  1  0
 11 14  1  0
 11 16  1  0
 11 23  1  6
 12 15  1  6
 12 14  1  0
 29 15  1  1
 16 20  2  0
 16 28  1  0
 19 25  1  0
 19 27  2  0
 24 26  2  0
 26 27  1  0
 29 30  1  0
 29 31  1  0
 30 32  1  0
 31 33  1  0
 32 34  1  0
 32 35  1  6
 33 34  1  0
 33 37  1  6
 34 36  1  6
M  END
>  <Formula>  (353) 
C26H27NO10

>  <FW>  (353) 
513.4933

>  <DSSTox_CID>  (353) 
2742

>  <NR-Aromatase>  (353) 
1

>  <NR-AR>  (353) 
0

>  <NR-AR-LBD>  (353) 
1

>  <NR-ER-LBD>  (353) 
1

>  <SR-ATAD5>  (353) 
1

>  <SR-MMP>  (353) 
1

>  <SR-p53>  (353) 
1

$$$$
NCGC00016576-01
     RDKit          2D

114123  0  0  0  0  0  0  0  0999 V2000
    4.9525   -5.8300    0.0000 C   0  0  0  0  0  0  0  0  0  0  0  0
    5.6218   -6.2167    0.0000 C   0  0  0  0  0  0  0  0  0  0  0  0
    4.9525  -12.3292    0.0000 C   0  0  0  0  0  0  0  0  0  0  0  0
    4.2089   -6.2167    0.0000 C   0  0  0  0  0  0  0  0  0  0  0  0
    6.3654   -5.8300    0.0000 N   0  0  0  0  0  0  0  0  0  0  0  0
    2.7960   -7.0495    0.0000 C   0  0  0  0  0  0  0  0  0  0  0  0
    6.3654  -10.6932    0.0000 C   0  0  0  0  0  0  0  0  0  0  0  0
    5.6218  -11.9128    0.0000 C   0  0  0  0  0  0  0  0  0  0  0  0
    5.6218   -7.0495    0.0000 C   0  0  0  0  0  0  0  0  0  0  0  0
    4.9525   -6.7520    0.0000 N   0  0  0  0  0  0  0  0  0  0  0  0
    4.2089   -7.0495    0.0000 N   0  0  0  0  0  0  0  0  0  0  0  0
    5.6218  -11.0800    0.0000 N   0  0  0  0  0  0  0  0  0  0  0  0
    6.3654   -8.2690    0.0000 C   0  0  0  0  0  0  0  0  0  0  0  0
    7.6890   -3.3463    0.0000 C   0  0  0  0  0  0  0  0  0  0  0  0
    6.3654   -7.4065    0.0000 N   0  0  0  0  0  0  0  0  0  0  0  0
   10.5742   -9.8604    0.0000 C   0  0  0  0  0  0  0  0  0  0  0  0
    4.2089  -11.9128    0.0000 N   0  0  0  0  0  0  0  0  0  0  0  0
    7.0495   -8.6260    0.0000 C   0  0  0  0  0  0  0  0  0  0  0  0
    7.0495   -3.7330    0.0000 N   0  0  0  0  0  0  0  0  0  0  0  0
    7.0495   -9.4737    0.0000 N   0  0  0  0  0  0  0  0  0  0  0  0
    2.0970   -8.2690    0.0000 N   0  0  0  0  0  0  0  0  0  0  0  0
    1.3682  -11.9128    0.0000 N   0  0  0  0  0  0  0  0  0  0  0  0
    9.8455   -9.4737    0.0000 N   0  0  0  0  0  0  0  0  0  0  0  0
    1.3682   -8.6260    0.0000 C   0  0  0  0  0  0  0  0  0  0  0  0
    1.3682   -9.4737    0.0000 C   0  0  0  0  0  0  0  0  0  0  0  0
    1.3682  -11.0800    0.0000 C   0  0  0  0  0  0  0  0  0  0  0  0
   12.7159   -9.4737    0.0000 N   0  0  0  0  0  0  0  0  0  0  0  0
    6.3654   -9.8604    0.0000 C   0  0  0  0  0  0  0  0  0  0  0  0
    2.0970   -7.4065    0.0000 C   0  0  0  0  0  0  0  0  0  0  0  0
    7.0495   -4.6105    0.0000 C   0  0  0  0  0  0  0  0  0  0  0  0
   10.5742  -10.6932    0.0000 C   0  0  0  0  0  0  0  0  0  0  0  0
   11.9871   -8.2839    0.0000 C   0  0  0  0  0  0  0  0  0  0  0  0
    0.6841   -9.8604    0.0000 N   0  0  0  0  0  0  0  0  0  0  0  0
    3.5247  -12.3292    0.0000 C   0  0  0  0  0  0  0  0  0  0  0  0
   10.5742   -5.8300    0.0000 N   0  0  0  0  0  0  0  0  0  0  0  0
    2.7960  -11.9128    0.0000 C   0  0  0  0  0  0  0  0  0  0  0  0
    4.9525  -13.1621    0.0000 C   0  0  0  0  0  0  0  0  0  0  0  0
   11.9871   -7.4065    0.0000 N   0  0  0  0  0  0  0  0  0  0  0  0
    9.1465   -5.8300    0.0000 C   0  0  0  0  0  0  0  0  0  0  0  0
    7.0495   -6.2167    0.0000 C   0  0  0  0  0  0  0  0  0  0  0  0
    8.4177   -6.2167    0.0000 N   0  0  0  0  0  0  0  0  0  0  0  0
    9.1465   -9.8604    0.0000 C   0  0  0  0  0  0  0  0  0  0  0  0
    7.6890   -2.4986    0.0000 C   0  0  0  0  0  0  0  0  0  0  0  0
    8.4177   -9.4737    0.0000 C   0  0  0  0  0  0  0  0  0  0  0  0
    0.6841  -10.6932    0.0000 C   0  0  0  0  0  0  0  0  0  0  0  0
    9.8455   -6.2167    0.0000 C   0  0  0  0  0  0  0  0  0  0  0  0
   11.3030   -6.2167    0.0000 C   0  0  0  0  0  0  0  0  0  0  0  0
    6.3654   -4.9971    0.0000 C   0  0  0  0  0  0  0  0  0  0  0  0
   11.3030   -9.4737    0.0000 C   0  0  0  0  0  0  0  0  0  0  0  0
    8.4177   -8.6260    0.0000 O   0  0  0  0  0  0  0  0  0  0  0  0
    9.8455  -11.0800    0.0000 C   0  0  0  0  0  0  0  0  0  0  0  0
    3.5247   -5.8300    0.0000 S   0  0  0  0  0  0  0  0  0  0  0  0
    7.0495  -11.9128    0.0000 S   0  0  0  0  0  0  0  0  0  0  0  0
    4.9525   -8.2690    0.0000 S   0  0  0  0  0  0  0  0  0  0  0  0
   11.9871   -9.8604    0.0000 C   0  0  0  0  0  0  0  0  0  0  0  0
   12.7159   -8.6260    0.0000 C   0  0  0  0  0  0  0  0  0  0  0  0
    7.6890   -0.8477    0.0000 C   0  0  0  0  0  0  0  0  0  0  0  0
    8.4177   -4.6105    0.0000 S   0  0  0  0  0  0  0  0  0  0  0  0
   11.3030  -11.0800    0.0000 C   0  0  0  0  0  0  0  0  0  0  0  0
    7.0495   -1.2344    0.0000 C   0  0  0  0  0  0  0  0  0  0  0  0
    2.0970  -10.6932    0.0000 S   0  0  0  0  0  0  0  0  0  0  0  0
    7.0495   -2.0821    0.0000 N   0  0  0  0  0  0  0  0  0  0  0  0
    2.7960   -6.2167    0.0000 C   0  0  0  0  0  0  0  0  0  0  0  0
    7.0495  -11.0800    0.0000 C   0  0  0  0  0  0  0  0  0  0  0  0
    8.4177   -1.2344    0.0000 N   0  0  0  0  0  0  0  0  0  0  0  0
    8.4177   -3.7330    0.0000 C   0  0  0  0  0  0  0  0  0  0  0  0
    4.9525   -7.4065    0.0000 C   0  0  0  0  0  0  0  0  0  0  0  0
    9.1465   -0.8477    0.0000 C   0  0  0  0  0  0  0  0  0  0  0  0
    9.1465  -10.6932    0.0000 C   0  0  0  0  0  0  0  0  0  0  0  0
    7.6890   -8.2690    0.0000 C   0  0  0  0  0  0  0  0  0  0  0  0
   11.9871  -10.6932    0.0000 C   0  0  0  0  0  0  0  0  0  0  0  0
    4.9525   -4.9971    0.0000 C   0  0  0  0  0  0  0  0  0  0  0  0
    9.8455   -1.2344    0.0000 C   0  0  0  0  0  0  0  0  0  0  0  0
    7.6890   -5.8300    0.0000 C   0  0  0  0  0  0  0  0  0  0  0  0
   11.3030   -7.0495    0.0000 C   0  0  0  0  0  0  0  0  0  0  0  0
    2.7960  -11.0800    0.0000 C   0  0  0  0  0  0  0  0  0  0  0  0
    2.0970   -9.8604    0.0000 O   0  0  0  0  0  0  0  0  0  0  0  0
   11.3328   -8.2839    0.0000 O   0  0  0  0  0  0  0  0  0  0  0  0
    5.6218   -4.6105    0.0000 C   0  0  0  0  0  0  0  0  0  0  0  0
    1.3682   -7.0495    0.0000 O   0  0  0  0  0  0  0  0  0  0  0  0
    5.6218   -9.4737    0.0000 O   0  0  0  0  0  0  0  0  0  0  0  0
    3.5247  -13.1621    0.0000 O   0  0  0  0  0  0  0  0  0  0  0  0
    9.1465   -4.9971    0.0000 O   0  0  0  0  0  0  0  0  0  0  0  0
    7.0495   -7.0495    0.0000 O   0  0  0  0  0  0  0  0  0  0  0  0
    7.6890   -9.8604    0.0000 O   0  0  0  0  0  0  0  0  0  0  0  0
   11.9871   -5.8300    0.0000 O   0  0  0  0  0  0  0  0  0  0  0  0
    8.4177   -2.0821    0.0000 O   0  0  0  0  0  0  0  0  0  0  0  0
    7.6890    0.0000    0.0000 O   0  0  0  0  0  0  0  0  0  0  0  0
    0.0000  -11.0800    0.0000 C   0  0  0  0  0  0  0  0  0  0  0  0
    9.8455   -2.0821    0.0000 O   0  0  0  0  0  0  0  0  0  0  0  0
    0.6841   -8.2690    0.0000 C   0  0  0  0  0  0  0  0  0  0  0  0
    9.8455   -7.0495    0.0000 C   0  0  0  0  0  0  0  0  0  0  0  0
    5.6218  -13.5339    0.0000 C   0  0  0  0  0  0  0  0  0  0  0  0
    6.3654   -0.8477    0.0000 C   0  0  0  0  0  0  0  0  0  0  0  0
    9.1465    0.0000    0.0000 C   0  0  0  0  0  0  0  0  0  0  0  0
    9.8455  -11.9128    0.0000 C   0  0  0  0  0  0  0  0  0  0  0  0
    4.2684  -12.7307    0.0000 O   0  0  0  0  0  0  0  0  0  0  0  0
   10.5742   -0.8477    0.0000 N   0  0  0  0  0  0  0  0  0  0  0  0
   13.4149   -8.1947    0.0000 C   0  0  0  0  0  0  0  0  0  0  0  0
   11.3030   -8.8193    0.0000 O   0  0  0  0  0  0  0  0  0  0  0  0
    4.2089  -13.5339    0.0000 C   0  0  0  0  0  0  0  0  0  0  0  0
    6.3654  -13.1621    0.0000 O   0  0  0  0  0  0  0  0  0  0  0  0
    0.0000   -8.6260    0.0000 O   0  0  0  0  0  0  0  0  0  0  0  0
   10.5742  -12.3292    0.0000 O   0  0  0  0  0  0  0  0  0  0  0  0
    7.6890   -7.4065    0.0000 C   0  0  0  0  0  0  0  0  0  0  0  0
    7.6890   -4.9971    0.0000 C   0  0  0  0  0  0  0  0  0  0  0  0
   10.7379   -7.6444    0.0000 C   0  0  0  0  0  0  0  0  0  0  0  0
    0.0000  -11.9128    0.0000 C   0  0  0  0  0  0  0  0  0  0  0  0
   14.1436   -8.6260    0.0000 C   0  0  0  0  0  0  0  0  0  0  0  0
    5.6218  -14.3816    0.0000 C   0  0  0  0  0  0  0  0  0  0  0  0
    0.6841   -7.4065    0.0000 C   0  0  0  0  0  0  0  0  0  0  0  0
    9.1465  -12.3292    0.0000 C   0  0  0  0  0  0  0  0  0  0  0  0
   13.4149   -7.4065    0.0000 C   0  0  0  0  0  0  0  0  0  0  0  0
   14.8724   -8.1947    0.0000 C   0  0  0  0  0  0  0  0  0  0  0  0
  1  2  1  0
  1  4  1  0
  1 10  1  0
  1 72  1  0
  2  5  1  0
  2  9  1  0
  3  8  1  0
  3 17  1  0
  3 37  1  0
  4 11  2  0
  4 52  1  0
  5 48  2  0
  6 11  1  0
  6 29  1  0
  6 63  2  0
  7 28  1  0
  7 12  1  0
  7 64  2  0
  8 12  2  0
  8 53  1  0
  9 15  1  0
  9 67  2  0
 10 40  1  0
 13 15  2  0
 13 18  1  0
 13 54  1  0
 14 19  1  0
 14 43  1  0
 14 66  2  0
 16 23  1  0
 16 49  1  0
 16 31  2  0
 17 34  1  0
 18 20  1  0
 18 70  1  0
 19 30  2  0
 20 28  1  0
 21 29  1  0
 21 24  1  0
 22 26  2  0
 22 36  1  0
 23 42  2  0
 24 25  1  0
 24 91  1  0
 25 33  1  0
 25 77  2  0
 26 45  1  0
 26 61  1  0
 27 56  1  0
 27 55  1  0
 28 81  2  0
 29 80  2  0
 30 48  1  0
 30 58  1  0
 31 51  1  0
 31 59  1  0
 32 38  1  0
 32 56  1  0
 32 78  2  0
 33 45  1  0
 34 36  1  0
 34 82  2  0
 35 46  1  0
 35 47  1  0
 36 76  1  0
 37 93  1  0
 37 97  1  0
 37101  1  0
 38 75  1  0
 39 41  1  0
 39 46  1  0
 39 83  2  0
 40 74  1  0
 40 84  2  0
 41 74  1  0
 42 44  1  0
 42 69  1  0
 43 62  1  0
 43 87  2  0
 44 50  1  0
 44 85  2  0
 45 89  2  0
 46 92  2  0
 47 75  1  0
 47 86  2  0
 48 79  1  0
 49 55  1  0
 49100  1  0
 50 70  1  0
 51 69  2  0
 51 96  1  0
 52 63  1  0
 53 64  1  0
 54 67  1  0
 55 71  1  0
 56 99  1  0
 57 60  1  0
 57 65  1  0
 57 88  2  0
 58 66  1  0
 59 71  2  0
 60 62  1  0
 60 94  2  0
 61 76  1  0
 65 68  1  0
 68 73  1  0
 68 95  2  0
 70105  1  0
 72 79  1  0
 73 90  2  0
 73 98  1  0
 74106  1  0
 75107  1  0
 89108  1  0
 91103  1  0
 91111  1  0
 93102  1  0
 93110  1  0
 96104  1  0
 96112  1  0
 99109  1  0
 99113  1  0
109114  1  0
M  END
>  <Formula>  (354) 
C72H85N19O18S5

>  <FW>  (354) 
1664.8868

>  <DSSTox_CID>  (354) 
20625

>  <NR-AR>  (354) 
0

>  <NR-AR-LBD>  (354) 
0

>  <NR-ER>  (354) 
0

>  <NR-PPAR-gamma>  (354) 
1

>  <NR-AhR>  (354) 
0

>  <SR-ATAD5>  (354) 
1

>  <SR-p53>  (354) 
1

$$$$
NCGC00093976-03
     RDKit          2D

 37 40  0  0  1  0  0  0  0  0999 V2000
    7.8574   -1.4301    0.0000 C   0  0  0  0  0  0  0  0  0  0  0  0
    7.8574   -2.2551    0.0000 C   0  0  0  0  0  0  0  0  0  0  0  0
    7.1503   -1.0136    0.0000 C   0  0  0  0  0  0  0  0  0  0  0  0
    7.1503   -2.6637    0.0000 C   0  0  0  0  0  0  0  0  0  0  0  0
    6.4274   -1.4301    0.0000 C   0  0  0  0  0  0  0  0  0  0  0  0
    6.4274   -2.2551    0.0000 C   0  0  0  0  0  0  0  0  0  0  0  0
    5.7202   -1.0136    0.0000 C   0  0  0  0  0  0  0  0  0  0  0  0
    5.0052   -1.4301    0.0000 C   0  0  0  0  0  0  0  0  0  0  0  0
    5.7202   -2.6637    0.0000 C   0  0  0  0  0  0  0  0  0  0  0  0
    5.0052   -2.2551    0.0000 C   0  0  0  0  0  0  0  0  0  0  0  0
    4.2902   -1.0136    0.0000 C   0  0  0  0  0  0  0  0  0  0  0  0
    3.5673   -1.4301    0.0000 C   0  0  0  0  0  0  0  0  0  0  0  0
    4.2902   -2.6637    0.0000 C   0  0  0  0  0  0  0  0  0  0  0  0
    3.5673   -2.2551    0.0000 C   0  0  0  0  0  0  0  0  0  0  0  0
    5.7202   -0.1886    0.0000 O   0  0  0  0  0  0  0  0  0  0  0  0
    5.7202   -3.4887    0.0000 O   0  0  0  0  0  0  0  0  0  0  0  0
    4.2902   -0.1886    0.0000 O   0  0  0  0  0  0  0  0  0  0  0  0
    4.2902   -3.4887    0.0000 O   0  0  0  0  0  0  0  0  0  0  0  0
    2.8522   -1.0136    0.0000 C   0  0  0  0  0  0  0  0  0  0  0  0
    2.1372   -1.4301    0.0000 C   0  0  0  0  0  0  0  0  0  0  0  0
    2.8522   -2.6637    0.0000 C   0  0  0  0  0  0  0  0  0  0  0  0
    2.1372   -2.2551    0.0000 C   0  0  0  0  0  0  0  0  0  0  0  0
    2.8522   -3.4887    0.0000 O   0  0  0  0  0  0  0  0  0  0  0  0
    1.7286   -0.6993    0.0000 C   0  0  0  0  0  0  0  0  0  0  0  0
    0.9036   -0.6993    0.0000 O   0  0  0  0  0  0  0  0  0  0  0  0
    2.1372    0.0000    0.0000 C   0  0  0  0  0  0  0  0  0  0  0  0
    1.3122   -1.4301    0.0000 O   0  0  0  0  0  0  0  0  0  0  0  0
    2.1372   -3.9051    0.0000 C   0  0  0  0  0  0  0  0  0  0  0  0
    2.1372   -4.7302    0.0000 C   0  0  0  0  0  0  0  0  0  0  0  0
    1.4301   -3.4887    0.0000 O   0  0  0  0  0  0  0  0  0  0  0  0
    1.4301   -5.1387    0.0000 C   0  0  0  0  0  0  0  0  0  0  0  0
    0.7072   -3.9051    0.0000 C   0  0  0  0  0  0  0  0  0  0  0  0
    0.7072   -4.7302    0.0000 C   0  0  0  0  0  0  0  0  0  0  0  0
    0.0000   -3.4887    0.0000 C   0  0  0  0  0  0  0  0  0  0  0  0
    0.0000   -5.1387    0.0000 O   0  0  0  0  0  0  0  0  0  0  0  0
    1.4301   -5.9638    0.0000 N   0  0  0  0  0  0  0  0  0  0  0  0
    3.6615   -4.4395    0.0000 Cl  0  0  0  0  0  0  0  0  0  0  0  0
  1  2  2  0
  1  3  1  0
  2  4  1  0
  3  5  2  0
  4  6  2  0
  5  7  1  0
  5  6  1  0
  6  9  1  0
  7  8  1  0
  7 15  2  0
  8 11  2  0
  8 10  1  0
  9 10  1  0
  9 16  2  0
 10 13  2  0
 11 12  1  0
 11 17  1  0
 12 19  1  0
 12 14  2  0
 13 14  1  0
 13 18  1  0
 14 21  1  0
 19 20  1  0
 20 22  1  0
 20 24  1  0
 20 27  1  1
 21 22  1  0
 21 23  1  1
 28 23  1  1
 24 25  2  0
 24 26  1  0
 28 29  1  0
 28 30  1  0
 29 31  1  0
 30 32  1  0
 31 33  1  0
 31 36  1  6
 32 33  1  0
 32 34  1  6
 33 35  1  6
M  END
>  <Formula>  (355) 
C26H28ClNO9

>  <FW>  (355) 
533.9548 (497.4939+36.4609)

>  <DSSTox_CID>  (355) 
27775

>  <NR-Aromatase>  (355) 
1

>  <NR-AR>  (355) 
0

>  <NR-AR-LBD>  (355) 
1

>  <NR-ER-LBD>  (355) 
1

>  <SR-ATAD5>  (355) 
1

>  <SR-MMP>  (355) 
1

>  <SR-p53>  (355) 
1

$$$$
NCGC00161927-01
     RDKit          2D

 29 33  0  0  1  0  0  0  0  0999 V2000
    2.6999   -1.2403    0.0000 C   0  0  0  0  0  0  0  0  0  0  0  0
    2.6999   -2.0653    0.0000 C   0  0  0  0  0  0  0  0  0  0  0  0
    1.9845   -0.8250    0.0000 C   0  0  0  0  0  0  0  0  0  0  0  0
    1.9845   -2.4749    0.0000 C   0  0  0  0  0  0  0  0  0  0  0  0
    1.2692   -1.2403    0.0000 C   0  0  0  0  0  0  0  0  0  0  0  0
    1.2692   -2.0653    0.0000 C   0  0  0  0  0  0  0  0  0  0  0  0
    3.4153   -0.8250    0.0000 C   0  0  0  0  0  0  0  0  0  0  0  0
    4.1306   -1.2403    0.0000 C   0  0  0  0  0  0  0  0  0  0  0  0
    3.4153   -2.4749    0.0000 C   0  0  0  0  0  0  0  0  0  0  0  0
    4.1306   -2.0653    0.0000 C   0  0  0  0  0  0  0  0  0  0  0  0
    4.9152   -0.9807    0.0000 C   0  0  0  0  0  0  0  0  0  0  0  0
    5.3941   -1.6499    0.0000 O   0  0  0  0  0  0  0  0  0  0  0  0
    4.9152   -2.3134    0.0000 C   0  0  0  0  0  0  0  0  0  0  0  0
    0.4846   -0.9807    0.0000 O   0  0  0  0  0  0  0  0  0  0  0  0
    0.0000   -1.6499    0.0000 C   0  0  0  0  0  0  0  0  0  0  0  0
    0.4846   -2.3134    0.0000 O   0  0  0  0  0  0  0  0  0  0  0  0
    3.4153   -3.2941    0.0000 C   0  0  0  0  0  0  0  0  0  0  0  0
    4.1306   -3.7153    0.0000 C   0  0  0  0  0  0  0  0  0  0  0  0
    2.6999   -3.7153    0.0000 C   0  0  0  0  0  0  0  0  0  0  0  0
    4.1306   -4.5403    0.0000 C   0  0  0  0  0  0  0  0  0  0  0  0
    2.6999   -4.5287    0.0000 C   0  0  0  0  0  0  0  0  0  0  0  0
    3.4153   -4.9441    0.0000 C   0  0  0  0  0  0  0  0  0  0  0  0
    3.4153    0.0000    0.0000 O   0  0  0  0  0  0  0  0  0  0  0  0
    5.1633   -3.0979    0.0000 O   0  0  0  0  0  0  0  0  0  0  0  0
    1.9845   -4.9441    0.0000 O   0  0  0  0  0  0  0  0  0  0  0  0
    1.2692   -4.5287    0.0000 C   0  0  0  0  0  0  0  0  0  0  0  0
    3.4153   -5.7691    0.0000 O   0  0  0  0  0  0  0  0  0  0  0  0
    4.8460   -4.9441    0.0000 O   0  0  0  0  0  0  0  0  0  0  0  0
    5.5498   -4.5403    0.0000 C   0  0  0  0  0  0  0  0  0  0  0  0
  1  3  2  0
  1  7  1  0
  1  2  1  0
  2  4  2  0
  2  9  1  0
  3  5  1  0
  4  6  1  0
  5  6  2  0
  5 14  1  0
  6 16  1  0
  7  8  1  0
  7 23  1  1
  8 11  1  1
  8 10  1  0
  9 10  1  0
  9 17  1  6
 10 13  1  6
 11 12  1  0
 12 13  1  0
 13 24  2  0
 14 15  1  0
 15 16  1  0
 17 18  2  0
 17 19  1  0
 18 20  1  0
 19 21  2  0
 20 22  2  0
 20 28  1  0
 21 22  1  0
 21 25  1  0
 22 27  1  0
 25 26  1  0
 28 29  1  0
M  END
>  <Formula>  (356) 
C21H20O8

>  <FW>  (356) 
400.3787

>  <DSSTox_CID>  (356) 
28668

>  <NR-Aromatase>  (356) 
0

>  <NR-AR>  (356) 
0

>  <NR-ER>  (356) 
0

>  <NR-AhR>  (356) 
1

>  <SR-ATAD5>  (356) 
1

>  <SR-MMP>  (356) 
1

>  <SR-p53>  (356) 
1

$$$$
NCGC00168254-01
     RDKit          2D

 24 26  0  0  0  0  0  0  0  0999 V2000
    4.0242   -3.4493    0.0000 C   0  0  0  0  0  0  0  0  0  0  0  0
    3.2204   -3.6995    0.0000 C   0  0  0  0  0  0  0  0  0  0  0  0
    3.0554   -4.4926    0.0000 Cl  0  0  0  0  0  0  0  0  0  0  0  0
    2.6455   -3.1139    0.0000 C   0  0  0  0  0  0  0  0  0  0  0  0
    2.8265   -2.3315    0.0000 C   0  0  0  0  0  0  0  0  0  0  0  0
    3.6196   -2.0760    0.0000 C   0  0  0  0  0  0  0  0  0  0  0  0
    4.2052   -2.6562    0.0000 C   0  0  0  0  0  0  0  0  0  0  0  0
    3.9071   -1.3201    0.0000 N   0  0  0  0  0  0  0  0  0  0  0  0
    3.4972   -0.6068    0.0000 C   0  0  0  0  0  0  0  0  0  0  0  0
    2.6774   -0.4791    0.0000 C   0  0  0  0  0  0  0  0  0  0  0  0
    2.0919   -1.0540    0.0000 N   0  0  0  0  0  0  0  0  0  0  0  0
    2.1399   -1.8684    0.0000 C   0  0  0  0  0  0  0  0  0  0  0  0
    1.4266   -2.2729    0.0000 C   0  0  0  0  0  0  0  0  0  0  0  0
    1.4266   -3.0927    0.0000 C   0  0  0  0  0  0  0  0  0  0  0  0
    0.7133   -3.5132    0.0000 C   0  0  0  0  0  0  0  0  0  0  0  0
    0.0000   -3.0927    0.0000 C   0  0  0  0  0  0  0  0  0  0  0  0
    0.0000   -2.2729    0.0000 C   0  0  0  0  0  0  0  0  0  0  0  0
    0.7133   -1.8577    0.0000 C   0  0  0  0  0  0  0  0  0  0  0  0
    0.7133   -1.0326    0.0000 F   0  0  0  0  0  0  0  0  0  0  0  0
    4.0561    0.0000    0.0000 C   0  0  0  0  0  0  0  0  0  0  0  0
    4.7960   -0.3407    0.0000 N   0  0  0  0  0  0  0  0  0  0  0  0
    4.7108   -1.1497    0.0000 C   0  0  0  0  0  0  0  0  0  0  0  0
    5.3230   -1.7087    0.0000 C   0  0  0  0  0  0  0  0  0  0  0  0
    4.9876   -3.0554    0.0000 Cl  0  0  0  0  0  0  0  0  0  0  0  0
  1  2  2  0
  1  7  1  0
  2  3  1  0
  2  4  1  0
  4  5  2  0
  5  6  1  0
  5 12  1  0
  6  7  2  0
  6  8  1  0
  8  9  1  0
  8 22  1  0
  9 10  1  0
  9 20  2  0
 10 11  1  0
 11 12  2  0
 12 13  1  0
 13 14  2  0
 13 18  1  0
 14 15  1  0
 15 16  2  0
 16 17  1  0
 17 18  2  0
 18 19  1  0
 20 21  1  0
 21 22  2  0
 22 23  1  0
M  END
>  <Formula>  (357) 
C18H14Cl2FN3

>  <FW>  (357) 
362.2283 (325.7673+36.4609)

>  <DSSTox_CID>  (357) 
27824

>  <NR-AR>  (357) 
0

>  <NR-AR-LBD>  (357) 
0

>  <NR-ER-LBD>  (357) 
0

>  <NR-PPAR-gamma>  (357) 
0

>  <SR-ATAD5>  (357) 
1

>  <SR-p53>  (357) 
0

$$$$
NCGC00257389-01
     RDKit          2D

 25 28  0  0  0  0  0  0  0  0999 V2000
    3.7446   -0.2399    0.0000 N   0  0  0  0  0  0  0  0  0  0  0  0
    4.4584   -0.5910    0.0000 C   0  0  0  0  0  0  0  0  0  0  0  0
    4.6281   -1.4042    0.0000 C   0  0  0  0  0  0  0  0  0  0  0  0
    4.1132   -2.0186    0.0000 N   0  0  0  0  0  0  0  0  0  0  0  0
    3.2999   -2.0186    0.0000 C   0  0  0  0  0  0  0  0  0  0  0  0
    2.7909   -1.3633    0.0000 C   0  0  0  0  0  0  0  0  0  0  0  0
    3.0015   -0.5675    0.0000 C   0  0  0  0  0  0  0  0  0  0  0  0
    2.3931    0.0000    0.0000 C   0  0  0  0  0  0  0  0  0  0  0  0
    1.5973   -0.2224    0.0000 C   0  0  0  0  0  0  0  0  0  0  0  0
    1.3925   -1.0181    0.0000 C   0  0  0  0  0  0  0  0  0  0  0  0
    1.9952   -1.5622    0.0000 C   0  0  0  0  0  0  0  0  0  0  0  0
    5.1957   -0.1697    0.0000 N   0  0  0  0  0  0  0  0  0  0  0  0
    5.8334   -0.7548    0.0000 N   0  0  0  0  0  0  0  0  0  0  0  0
    5.4648   -1.5213    0.0000 C   0  0  0  0  0  0  0  0  0  0  0  0
    2.9313   -4.2244    0.0000 C   0  0  0  0  0  0  0  0  0  0  0  0
    2.1063   -4.2244    0.0000 C   0  0  0  0  0  0  0  0  0  0  0  0
    1.6909   -3.5106    0.0000 C   0  0  0  0  0  0  0  0  0  0  0  0
    2.1063   -2.7968    0.0000 C   0  0  0  0  0  0  0  0  0  0  0  0
    2.9313   -2.7968    0.0000 C   0  0  0  0  0  0  0  0  0  0  0  0
    3.3350   -3.5106    0.0000 C   0  0  0  0  0  0  0  0  0  0  0  0
    4.1600   -3.5106    0.0000 Cl  0  0  0  0  0  0  0  0  0  0  0  0
    5.8510   -2.2292    0.0000 C   0  0  0  0  0  0  0  0  0  0  0  0
    0.6085   -1.2521    0.0000 N   0  0  0  0  0  0  0  0  0  0  0  0
    0.0000   -0.6963    0.0000 O   0  0  0  0  0  0  0  0  0  0  0  0
    0.4095   -2.0595    0.0000 O   0  0  0  0  0  0  0  0  0  0  0  0
  1  2  1  0
  1  7  1  0
  2  3  1  0
  2 12  2  0
  3  4  1  0
  3 14  2  0
  4  5  2  0
  5  6  1  0
  5 19  1  0
  6  7  2  0
  6 11  1  0
  7  8  1  0
  8  9  2  0
  9 10  1  0
 10 11  2  0
 10 23  1  0
 12 13  1  0
 13 14  1  0
 14 22  1  0
 15 20  2  0
 15 16  1  0
 16 17  2  0
 17 18  1  0
 18 19  2  0
 19 20  1  0
 20 21  1  0
 23 24  1  0
 23 25  2  0
M  CHG  2  23   1  24  -1
M  END
>  <Formula>  (358) 
C17H12ClN5O2

>  <FW>  (358) 
353.7625

>  <DSSTox_CID>  (358) 
28479

>  <NR-Aromatase>  (358) 
1

>  <NR-AR>  (358) 
0

>  <NR-AR-LBD>  (358) 
0

>  <NR-ER-LBD>  (358) 
1

>  <NR-AhR>  (358) 
1

>  <SR-ARE>  (358) 
1

>  <SR-ATAD5>  (358) 
1

>  <SR-p53>  (358) 
1

$$$$
NCGC00024246-05
     RDKit          2D

 38 42  0  0  1  0  0  0  0  0999 V2000
    2.3886   -5.9401    0.0000 C   0  0  0  0  0  0  0  0  0  0  0  0
    1.8622   -5.3115    0.0000 C   0  0  0  0  0  0  0  0  0  0  0  0
    1.0450   -5.4529    0.0000 O   0  0  0  0  0  0  0  0  0  0  0  0
    2.1450   -4.5336    0.0000 C   0  0  0  0  0  0  0  0  0  0  0  0
    1.3278   -4.3922    0.0000 O   0  0  0  0  0  0  0  0  0  0  0  0
    2.1450   -3.7086    0.0000 C   0  0  0  0  0  0  0  0  0  0  0  0
    2.8600   -3.2922    0.0000 C   0  0  0  0  0  0  0  0  0  0  0  0
    2.8600   -2.4750    0.0000 O   0  0  0  0  0  0  0  0  0  0  0  0
    2.1450   -2.0586    0.0000 C   0  0  0  0  0  0  0  0  0  0  0  0
    1.4300   -2.4750    0.0000 C   0  0  0  0  0  0  0  0  0  0  0  0
    0.7150   -2.0586    0.0000 C   0  0  0  0  0  0  0  0  0  0  0  0
    0.0000   -2.4750    0.0000 N   0  0  0  0  0  0  0  0  0  0  0  0
    0.7150   -1.2336    0.0000 C   0  0  0  0  0  0  0  0  0  0  0  0
    0.0000   -0.8250    0.0000 O   0  0  0  0  0  0  0  0  0  0  0  0
    1.4300   -0.8250    0.0000 C   0  0  0  0  0  0  0  0  0  0  0  0
    1.4300    0.0000    0.0000 C   0  0  0  0  0  0  0  0  0  0  0  0
    2.1450   -1.2336    0.0000 O   0  0  0  0  0  0  0  0  0  0  0  0
    3.5750   -3.7086    0.0000 C   0  0  0  0  0  0  0  0  0  0  0  0
    4.2822   -3.2922    0.0000 C   0  0  0  0  0  0  0  0  0  0  0  0
    4.2822   -2.4750    0.0000 O   0  0  0  0  0  0  0  0  0  0  0  0
    4.9972   -3.7086    0.0000 C   0  0  0  0  0  0  0  0  0  0  0  0
    5.7122   -3.2922    0.0000 C   0  0  0  0  0  0  0  0  0  0  0  0
    5.7122   -2.4750    0.0000 O   0  0  0  0  0  0  0  0  0  0  0  0
    6.4272   -3.7086    0.0000 C   0  0  0  0  0  0  0  0  0  0  0  0
    7.1422   -3.2922    0.0000 C   0  0  0  0  0  0  0  0  0  0  0  0
    7.1422   -2.4750    0.0000 O   0  0  0  0  0  0  0  0  0  0  0  0
    7.8572   -2.0586    0.0000 C   0  0  0  0  0  0  0  0  0  0  0  0
    7.8572   -3.7086    0.0000 C   0  0  0  0  0  0  0  0  0  0  0  0
    7.8572   -4.5336    0.0000 C   0  0  0  0  0  0  0  0  0  0  0  0
    7.1422   -4.9422    0.0000 C   0  0  0  0  0  0  0  0  0  0  0  0
    6.4272   -4.5336    0.0000 C   0  0  0  0  0  0  0  0  0  0  0  0
    5.7122   -4.9422    0.0000 C   0  0  0  0  0  0  0  0  0  0  0  0
    5.7122   -5.7672    0.0000 O   0  0  0  0  0  0  0  0  0  0  0  0
    4.9972   -4.5336    0.0000 C   0  0  0  0  0  0  0  0  0  0  0  0
    4.2822   -4.9422    0.0000 C   0  0  0  0  0  0  0  0  0  0  0  0
    4.2822   -5.7672    0.0000 O   0  0  0  0  0  0  0  0  0  0  0  0
    3.5750   -4.5336    0.0000 C   0  0  0  0  0  0  0  0  0  0  0  0
    2.8600   -4.9422    0.0000 C   0  0  0  0  0  0  0  0  0  0  0  0
  1  2  1  0
  2  3  2  0
  4  2  1  0
  4  5  1  6
  4  6  1  0
  4 38  1  0
  6  7  1  0
  7  8  1  6
  7 18  1  0
  9  8  1  1
  9 10  1  0
  9 17  1  0
 10 11  1  0
 11 12  1  6
 11 13  1  0
 13 14  1  6
 13 15  1  0
 15 16  1  6
 15 17  1  0
 18 19  1  0
 18 37  2  0
 19 20  1  0
 19 21  2  0
 21 22  1  0
 21 34  1  0
 22 23  2  0
 22 24  1  0
 24 25  2  0
 24 31  1  0
 25 26  1  0
 25 28  1  0
 26 27  1  0
 28 29  2  0
 29 30  1  0
 30 31  2  0
 31 32  1  0
 32 33  2  0
 32 34  1  0
 34 35  2  0
 35 36  1  0
 35 37  1  0
 37 38  1  0
M  END
>  <Formula>  (359) 
C27H29NO10

>  <FW>  (359) 
527.5199

>  <DSSTox_CID>  (359) 
2883

>  <NR-Aromatase>  (359) 
1

>  <NR-AR>  (359) 
0

>  <NR-AR-LBD>  (359) 
1

>  <NR-ER>  (359) 
1

>  <NR-ER-LBD>  (359) 
1

>  <SR-ATAD5>  (359) 
1

>  <SR-MMP>  (359) 
1

>  <SR-p53>  (359) 
1

$$$$
NCGC00164738-01
     RDKit          2D

 51 55  0  0  1  0  0  0  0  0999 V2000
    1.4249   -2.8390    0.0000 C   0  0  0  0  0  0  0  0  0  0  0  0
    1.4249   -3.6640    0.0000 C   0  0  0  0  0  0  0  0  0  0  0  0
    0.7071   -2.4212    0.0000 C   0  0  0  0  0  0  0  0  0  0  0  0
    0.7071   -4.0711    0.0000 C   0  0  0  0  0  0  0  0  0  0  0  0
    0.0000   -2.8390    0.0000 C   0  0  0  0  0  0  0  0  0  0  0  0
    0.0000   -3.6640    0.0000 C   0  0  0  0  0  0  0  0  0  0  0  0
    2.1427   -2.4212    0.0000 C   0  0  0  0  0  0  0  0  0  0  0  0
    2.8605   -2.8390    0.0000 C   0  0  0  0  0  0  0  0  0  0  0  0
    2.1427   -4.0711    0.0000 C   0  0  0  0  0  0  0  0  0  0  0  0
    2.8605   -3.6640    0.0000 C   0  0  0  0  0  0  0  0  0  0  0  0
    3.5783   -2.4212    0.0000 C   0  0  0  0  0  0  0  0  0  0  0  0
    4.2854   -2.8390    0.0000 C   0  0  0  0  0  0  0  0  0  0  0  0
    3.5783   -4.0711    0.0000 C   0  0  0  0  0  0  0  0  0  0  0  0
    4.2854   -3.6640    0.0000 C   0  0  0  0  0  0  0  0  0  0  0  0
    5.0139   -2.4212    0.0000 C   0  0  0  0  0  0  0  0  0  0  0  0
    5.7209   -2.8390    0.0000 C   0  0  0  0  0  0  0  0  0  0  0  0
    5.0139   -4.0711    0.0000 C   0  0  0  0  0  0  0  0  0  0  0  0
    5.7209   -3.6640    0.0000 C   0  0  0  0  0  0  0  0  0  0  0  0
    2.1427   -1.5963    0.0000 O   0  0  0  0  0  0  0  0  0  0  0  0
    0.7071   -4.9067    0.0000 O   0  0  0  0  0  0  0  0  0  0  0  0
    0.0000   -5.3138    0.0000 C   0  0  0  0  0  0  0  0  0  0  0  0
    2.1427   -4.9067    0.0000 O   0  0  0  0  0  0  0  0  0  0  0  0
    3.5783   -1.5963    0.0000 O   0  0  0  0  0  0  0  0  0  0  0  0
    3.5783   -4.9067    0.0000 O   0  0  0  0  0  0  0  0  0  0  0  0
    5.0139   -4.9067    0.0000 O   0  0  0  0  0  0  0  0  0  0  0  0
    6.5566   -2.8390    0.0000 C   0  0  0  0  0  0  0  0  0  0  0  0
    6.1281   -2.1105    0.0000 O   0  0  0  0  0  0  0  0  0  0  0  0
    6.9637   -3.5676    0.0000 O   0  0  0  0  0  0  0  0  0  0  0  0
    6.9744   -2.1320    0.0000 C   0  0  0  0  0  0  0  0  0  0  0  0
    7.7993   -2.1320    0.0000 O   0  0  0  0  0  0  0  0  0  0  0  0
    8.2171   -1.4249    0.0000 C   0  0  0  0  0  0  0  0  0  0  0  0
    9.0421   -1.4249    0.0000 C   0  0  0  0  0  0  0  0  0  0  0  0
    7.8101   -0.7071    0.0000 O   0  0  0  0  0  0  0  0  0  0  0  0
    9.4706   -0.7178    0.0000 C   0  0  0  0  0  0  0  0  0  0  0  0
   10.2956   -0.7285    0.0000 C   0  0  0  0  0  0  0  0  0  0  0  0
   10.7134    0.0000    0.0000 C   0  0  0  0  0  0  0  0  0  0  0  0
    5.7209   -5.3245    0.0000 C   0  0  0  0  0  0  0  0  0  0  0  0
    6.4494   -4.9067    0.0000 O   0  0  0  0  0  0  0  0  0  0  0  0
    5.7209   -6.1388    0.0000 C   0  0  0  0  0  0  0  0  0  0  0  0
    7.1565   -5.3245    0.0000 C   0  0  0  0  0  0  0  0  0  0  0  0
    6.4494   -6.5566    0.0000 C   0  0  0  0  0  0  0  0  0  0  0  0
    7.1565   -6.1495    0.0000 C   0  0  0  0  0  0  0  0  0  0  0  0
    7.8851   -6.5566    0.0000 O   0  0  0  0  0  0  0  0  0  0  0  0
    7.8851   -4.9067    0.0000 C   0  0  0  0  0  0  0  0  0  0  0  0
    6.4494   -7.3815    0.0000 N   0  0  0  0  0  0  0  0  0  0  0  0
    5.7316   -7.7993    0.0000 C   0  0  0  0  0  0  0  0  0  0  0  0
    5.0139   -7.3815    0.0000 O   0  0  0  0  0  0  0  0  0  0  0  0
    5.7316   -8.6350    0.0000 C   0  0  0  0  0  0  0  0  0  0  0  0
    4.9067   -8.6350    0.0000 F   0  0  0  0  0  0  0  0  0  0  0  0
    6.5673   -8.6350    0.0000 F   0  0  0  0  0  0  0  0  0  0  0  0
    5.7316   -9.4599    0.0000 F   0  0  0  0  0  0  0  0  0  0  0  0
  1  3  2  0
  1  7  1  0
  1  2  1  0
  2  4  2  0
  2  9  1  0
  3  5  1  0
  4  6  1  0
  4 20  1  0
  5  6  2  0
  7  8  1  0
  7 19  2  0
  8 11  2  0
  8 10  1  0
  9 10  1  0
  9 22  2  0
 10 13  2  0
 11 12  1  0
 11 23  1  0
 12 15  1  0
 12 14  2  0
 13 14  1  0
 13 24  1  0
 14 17  1  0
 15 16  1  0
 16 18  1  0
 16 26  1  0
 16 27  1  6
 17 18  1  0
 17 25  1  6
 20 21  1  0
 37 25  1  6
 26 28  2  0
 26 29  1  0
 29 30  1  0
 30 31  1  0
 31 32  1  0
 31 33  2  0
 32 34  1  0
 34 35  1  0
 35 36  1  0
 37 38  1  0
 37 39  1  0
 38 40  1  0
 39 41  1  0
 40 42  1  0
 40 44  1  1
 41 42  1  0
 41 45  1  1
 42 43  1  1
 45 46  1  0
 46 47  2  0
 46 48  1  0
 48 49  1  0
 48 50  1  0
 48 51  1  0
M  END
>  <Formula>  (360) 
C34H36F3NO13

>  <FW>  (360) 
723.6437

>  <DSSTox_CID>  (360) 
26497

>  <NR-AR>  (360) 
0

>  <NR-AR-LBD>  (360) 
1

>  <NR-PPAR-gamma>  (360) 
0

>  <NR-AhR>  (360) 
0

>  <SR-ATAD5>  (360) 
1

>  <SR-MMP>  (360) 
1

>  <SR-p53>  (360) 
1

$$$$
NCGC00183872-01
     RDKit          2D

 22 25  0  0  0  0  0  0  0  0999 V2000
    1.3653   -1.4519    0.0000 C   0  0  0  0  0  0  0  0  0  0  0  0
    1.5336   -0.6394    0.0000 C   0  0  0  0  0  0  0  0  0  0  0  0
    0.9471   -0.0529    0.0000 Br  0  0  0  0  0  0  0  0  0  0  0  0
    2.3413   -0.5481    0.0000 S   0  0  0  0  0  0  0  0  0  0  0  0
    2.6778   -1.2884    0.0000 C   0  0  0  0  0  0  0  0  0  0  0  0
    2.0913   -1.8702    0.0000 C   0  0  0  0  0  0  0  0  0  0  0  0
    2.1441   -2.6826    0.0000 C   0  0  0  0  0  0  0  0  0  0  0  0
    1.4278   -3.0961    0.0000 C   0  0  0  0  0  0  0  0  0  0  0  0
    1.4278   -3.9182    0.0000 C   0  0  0  0  0  0  0  0  0  0  0  0
    0.7163   -4.3316    0.0000 C   0  0  0  0  0  0  0  0  0  0  0  0
    0.0000   -3.9182    0.0000 C   0  0  0  0  0  0  0  0  0  0  0  0
    0.0000   -3.0961    0.0000 C   0  0  0  0  0  0  0  0  0  0  0  0
    0.7163   -2.6826    0.0000 C   0  0  0  0  0  0  0  0  0  0  0  0
    0.7163   -1.8557    0.0000 Cl  0  0  0  0  0  0  0  0  0  0  0  0
    2.8268   -3.1441    0.0000 N   0  0  0  0  0  0  0  0  0  0  0  0
    3.6153   -2.9037    0.0000 C   0  0  0  0  0  0  0  0  0  0  0  0
    3.9133   -2.1345    0.0000 C   0  0  0  0  0  0  0  0  0  0  0  0
    3.4999   -1.4230    0.0000 N   0  0  0  0  0  0  0  0  0  0  0  0
    4.0528   -0.8077    0.0000 C   0  0  0  0  0  0  0  0  0  0  0  0
    3.8845    0.0000    0.0000 C   0  0  0  0  0  0  0  0  0  0  0  0
    4.8075   -1.1442    0.0000 N   0  0  0  0  0  0  0  0  0  0  0  0
    4.7210   -1.9663    0.0000 N   0  0  0  0  0  0  0  0  0  0  0  0
  1  2  2  0
  1  6  1  0
  2  3  1  0
  2  4  1  0
  4  5  1  0
  5  6  2  0
  5 18  1  0
  6  7  1  0
  7  8  1  0
  7 15  2  0
  8  9  2  0
  8 13  1  0
  9 10  1  0
 10 11  2  0
 11 12  1  0
 12 13  2  0
 13 14  1  0
 15 16  1  0
 16 17  1  0
 17 18  1  0
 17 22  2  0
 18 19  1  0
 19 20  1  0
 19 21  2  0
 21 22  1  0
M  END
>  <Formula>  (361) 
C15H10BrClN4S

>  <FW>  (361) 
393.6887

>  <DSSTox_CID>  (361) 
2692

>  <NR-AR>  (361) 
0

>  <NR-AR-LBD>  (361) 
0

>  <NR-ER-LBD>  (361) 
0

>  <NR-PPAR-gamma>  (361) 
0

>  <NR-AhR>  (361) 
0

>  <SR-ATAD5>  (361) 
1

>  <SR-p53>  (361) 
0

$$$$
NCGC00183006-01
     RDKit          2D

 33 38  0  0  1  0  0  0  0  0999 V2000
    1.4338   -2.0186    0.0000 C   0  0  0  0  0  0  0  0  0  0  0  0
    1.4338   -2.8436    0.0000 C   0  0  0  0  0  0  0  0  0  0  0  0
    0.7129   -1.5941    0.0000 C   0  0  0  0  0  0  0  0  0  0  0  0
    0.7129   -3.2521    0.0000 C   0  0  0  0  0  0  0  0  0  0  0  0
    0.0000   -2.0186    0.0000 C   0  0  0  0  0  0  0  0  0  0  0  0
    0.0000   -2.8436    0.0000 C   0  0  0  0  0  0  0  0  0  0  0  0
    2.2188   -1.7542    0.0000 N   0  0  0  0  0  0  0  0  0  0  0  0
    2.6994   -2.4271    0.0000 C   0  0  0  0  0  0  0  0  0  0  0  0
    2.2188   -3.0919    0.0000 C   0  0  0  0  0  0  0  0  0  0  0  0
    3.5245   -2.4271    0.0000 C   0  0  0  0  0  0  0  0  0  0  0  0
    3.9490   -3.1320    0.0000 O   0  0  0  0  0  0  0  0  0  0  0  0
    3.9490   -1.6982    0.0000 N   0  0  0  0  0  0  0  0  0  0  0  0
    4.7741   -1.6982    0.0000 C   0  0  0  0  0  0  0  0  0  0  0  0
    5.1265   -0.9532    0.0000 C   0  0  0  0  0  0  0  0  0  0  0  0
    5.1265   -2.4431    0.0000 N   0  0  0  0  0  0  0  0  0  0  0  0
    5.9195   -0.7850    0.0000 N   0  0  0  0  0  0  0  0  0  0  0  0
    5.9195   -2.6354    0.0000 C   0  0  0  0  0  0  0  0  0  0  0  0
    6.5764   -2.1227    0.0000 C   0  0  0  0  0  0  0  0  0  0  0  0
    6.5764   -1.2976    0.0000 C   0  0  0  0  0  0  0  0  0  0  0  0
    4.5978   -0.3124    0.0000 O   0  0  0  0  0  0  0  0  0  0  0  0
    8.0102   -1.2976    0.0000 C   0  0  0  0  0  0  0  0  0  0  0  0
    8.0102   -2.1227    0.0000 C   0  0  0  0  0  0  0  0  0  0  0  0
    7.2973   -0.8731    0.0000 C   0  0  0  0  0  0  0  0  0  0  0  0
    7.2973   -2.5232    0.0000 C   0  0  0  0  0  0  0  0  0  0  0  0
    6.2079    0.0000    0.0000 C   0  0  0  0  0  0  0  0  0  0  0  0
    7.0730   -0.0801    0.0000 C   0  0  0  0  0  0  0  0  0  0  0  0
    6.6485   -3.8769    0.0000 C   0  0  0  0  0  0  0  0  0  0  0  0
    6.6485   -4.7019    0.0000 C   0  0  0  0  0  0  0  0  0  0  0  0
    5.9195   -3.4604    0.0000 C   0  0  0  0  0  0  0  0  0  0  0  0
    5.9195   -5.1105    0.0000 C   0  0  0  0  0  0  0  0  0  0  0  0
    5.2146   -3.8769    0.0000 C   0  0  0  0  0  0  0  0  0  0  0  0
    5.2146   -4.7019    0.0000 C   0  0  0  0  0  0  0  0  0  0  0  0
    7.3613   -3.4604    0.0000 F   0  0  0  0  0  0  0  0  0  0  0  0
  1  3  2  0
  1  7  1  0
  1  2  1  0
  2  4  2  0
  2  9  1  0
  3  5  1  0
  4  6  1  0
  5  6  2  0
  7  8  1  0
  8  9  2  0
  8 10  1  0
 10 11  2  0
 10 12  1  0
 13 12  1  1
 13 14  1  0
 13 15  1  0
 14 16  1  0
 14 20  2  0
 15 17  2  0
 16 25  1  0
 16 19  1  0
 17 18  1  0
 17 29  1  0
 18 24  2  0
 18 19  1  0
 19 23  2  0
 21 22  2  0
 21 23  1  0
 22 24  1  0
 23 26  1  0
 25 26  1  0
 27 28  2  0
 27 29  1  0
 27 33  1  0
 28 30  1  0
 29 31  2  0
 30 32  2  0
 31 32  1  0
M  END
>  <Formula>  (362) 
C26H19FN4O2

>  <FW>  (362) 
438.4531

>  <DSSTox_CID>  (362) 
28712

>  <NR-Aromatase>  (362) 
0

>  <NR-AR>  (362) 
0

>  <NR-AR-LBD>  (362) 
0

>  <NR-ER-LBD>  (362) 
0

>  <NR-PPAR-gamma>  (362) 
0

>  <NR-AhR>  (362) 
1

>  <SR-ATAD5>  (362) 
1

>  <SR-HSE>  (362) 
0

>  <SR-MMP>  (362) 
1

$$$$
NCGC00260032-01
     RDKit          2D

 40 43  0  0  1  0  0  0  0  0999 V2000
    2.0995   -6.7060    0.0000 O   0  0  0  0  0  0  0  0  0  0  0  0
    2.3816   -5.9304    0.0000 C   0  0  0  0  0  0  0  0  0  0  0  0
    1.8567   -5.3115    0.0000 C   0  0  0  0  0  0  0  0  0  0  0  0
    1.0420   -5.4447    0.0000 O   0  0  0  0  0  0  0  0  0  0  0  0
    2.1387   -4.5281    0.0000 C   0  0  0  0  0  0  0  0  0  0  0  0
    1.3318   -4.3871    0.0000 O   0  0  0  0  0  0  0  0  0  0  0  0
    2.1387   -3.6977    0.0000 C   0  0  0  0  0  0  0  0  0  0  0  0
    2.8594   -3.2982    0.0000 C   0  0  0  0  0  0  0  0  0  0  0  0
    2.8594   -2.4677    0.0000 O   0  0  0  0  0  0  0  0  0  0  0  0
    2.1387   -2.0525    0.0000 C   0  0  0  0  0  0  0  0  0  0  0  0
    1.4258   -2.4677    0.0000 C   0  0  0  0  0  0  0  0  0  0  0  0
    0.7129   -2.0525    0.0000 C   0  0  0  0  0  0  0  0  0  0  0  0
    0.0000   -2.4677    0.0000 N   0  0  0  0  0  0  0  0  0  0  0  0
    0.7129   -1.2300    0.0000 C   0  0  0  0  0  0  0  0  0  0  0  0
    0.0000   -0.8226    0.0000 O   0  0  0  0  0  0  0  0  0  0  0  0
    1.4258   -0.8226    0.0000 C   0  0  0  0  0  0  0  0  0  0  0  0
    1.4258    0.0000    0.0000 C   0  0  0  0  0  0  0  0  0  0  0  0
    2.1387   -1.2300    0.0000 O   0  0  0  0  0  0  0  0  0  0  0  0
    3.5724   -3.6977    0.0000 C   0  0  0  0  0  0  0  0  0  0  0  0
    4.2774   -3.2982    0.0000 C   0  0  0  0  0  0  0  0  0  0  0  0
    4.2774   -2.4677    0.0000 O   0  0  0  0  0  0  0  0  0  0  0  0
    4.9903   -3.6977    0.0000 C   0  0  0  0  0  0  0  0  0  0  0  0
    5.7032   -3.2982    0.0000 C   0  0  0  0  0  0  0  0  0  0  0  0
    5.7032   -2.4677    0.0000 O   0  0  0  0  0  0  0  0  0  0  0  0
    6.4161   -3.6977    0.0000 C   0  0  0  0  0  0  0  0  0  0  0  0
    7.1291   -3.2982    0.0000 C   0  0  0  0  0  0  0  0  0  0  0  0
    7.1291   -2.4677    0.0000 O   0  0  0  0  0  0  0  0  0  0  0  0
    7.8341   -2.0525    0.0000 C   0  0  0  0  0  0  0  0  0  0  0  0
    7.8341   -3.6977    0.0000 C   0  0  0  0  0  0  0  0  0  0  0  0
    7.8341   -4.5281    0.0000 C   0  0  0  0  0  0  0  0  0  0  0  0
    7.1291   -4.9433    0.0000 C   0  0  0  0  0  0  0  0  0  0  0  0
    6.4161   -4.5281    0.0000 C   0  0  0  0  0  0  0  0  0  0  0  0
    5.7032   -4.9433    0.0000 C   0  0  0  0  0  0  0  0  0  0  0  0
    5.7032   -5.7659    0.0000 O   0  0  0  0  0  0  0  0  0  0  0  0
    4.9903   -4.5281    0.0000 C   0  0  0  0  0  0  0  0  0  0  0  0
    4.2774   -4.9433    0.0000 C   0  0  0  0  0  0  0  0  0  0  0  0
    4.2774   -5.7659    0.0000 O   0  0  0  0  0  0  0  0  0  0  0  0
    3.5724   -4.5281    0.0000 C   0  0  0  0  0  0  0  0  0  0  0  0
    2.8594   -4.9433    0.0000 C   0  0  0  0  0  0  0  0  0  0  0  0
    5.9696   -0.3682    0.0000 Cl  0  0  0  0  0  0  0  0  0  0  0  0
  1  2  1  0
  2  3  1  0
  3  4  2  0
  5  3  1  0
  5  6  1  6
  5  7  1  0
  5 39  1  0
  7  8  1  0
  8  9  1  6
  8 19  1  0
 10  9  1  1
 10 11  1  0
 10 18  1  0
 11 12  1  0
 12 13  1  6
 12 14  1  0
 14 15  1  6
 14 16  1  0
 16 17  1  6
 16 18  1  0
 19 20  1  0
 19 38  2  0
 20 21  1  0
 20 22  2  0
 22 23  1  0
 22 35  1  0
 23 24  2  0
 23 25  1  0
 25 26  2  0
 25 32  1  0
 26 27  1  0
 26 29  1  0
 27 28  1  0
 29 30  2  0
 30 31  1  0
 31 32  2  0
 32 33  1  0
 33 34  2  0
 33 35  1  0
 35 36  2  0
 36 37  1  0
 36 38  1  0
 38 39  1  0
M  END
>  <Formula>  (363) 
C27H30ClNO11

>  <FW>  (363) 
579.9802 (543.5193+36.4609)

>  <DSSTox_CID>  (363) 
10636

>  <NR-Aromatase>  (363) 
1

>  <NR-AR>  (363) 
0

>  <NR-AR-LBD>  (363) 
1

>  <NR-ER-LBD>  (363) 
1

>  <NR-AhR>  (363) 
0

>  <SR-ATAD5>  (363) 
1

>  <SR-HSE>  (363) 
0

>  <SR-MMP>  (363) 
1

>  <SR-p53>  (363) 
1

$$$$
NCGC00182031-01
     RDKit          2D

 23 26  0  0  0  0  0  0  0  0999 V2000
    3.4189   -3.0904    0.0000 C   0  0  0  0  0  0  0  0  0  0  0  0
    3.4189   -3.9145    0.0000 C   0  0  0  0  0  0  0  0  0  0  0  0
    4.1372   -4.3321    0.0000 C   0  0  0  0  0  0  0  0  0  0  0  0
    4.1372   -5.1562    0.0000 C   0  0  0  0  0  0  0  0  0  0  0  0
    3.4245   -5.5682    0.0000 C   0  0  0  0  0  0  0  0  0  0  0  0
    2.7117   -5.1562    0.0000 C   0  0  0  0  0  0  0  0  0  0  0  0
    2.7117   -4.3321    0.0000 C   0  0  0  0  0  0  0  0  0  0  0  0
    1.9879   -3.9145    0.0000 Cl  0  0  0  0  0  0  0  0  0  0  0  0
    4.1650   -2.7285    0.0000 N   0  0  0  0  0  0  0  0  0  0  0  0
    4.3488   -1.9211    0.0000 C   0  0  0  0  0  0  0  0  0  0  0  0
    3.8309   -1.2751    0.0000 C   0  0  0  0  0  0  0  0  0  0  0  0
    3.0013   -1.2751    0.0000 N   0  0  0  0  0  0  0  0  0  0  0  0
    2.4890   -1.9211    0.0000 C   0  0  0  0  0  0  0  0  0  0  0  0
    2.6783   -2.7340    0.0000 C   0  0  0  0  0  0  0  0  0  0  0  0
    1.9600   -3.1516    0.0000 C   0  0  0  0  0  0  0  0  0  0  0  0
    1.3364   -2.6115    0.0000 C   0  0  0  0  0  0  0  0  0  0  0  0
    0.5346   -2.8008    0.0000 C   0  0  0  0  0  0  0  0  0  0  0  0
    0.0000   -2.1660    0.0000 C   0  0  0  0  0  0  0  0  0  0  0  0
    1.6649   -1.8542    0.0000 S   0  0  0  0  0  0  0  0  0  0  0  0
    2.7451   -0.4900    0.0000 C   0  0  0  0  0  0  0  0  0  0  0  0
    1.9545   -0.2339    0.0000 C   0  0  0  0  0  0  0  0  0  0  0  0
    3.4133    0.0000    0.0000 N   0  0  0  0  0  0  0  0  0  0  0  0
    4.0815   -0.4844    0.0000 N   0  0  0  0  0  0  0  0  0  0  0  0
  1  2  1  0
  1  9  2  0
  1 14  1  0
  2  3  2  0
  2  7  1  0
  3  4  1  0
  4  5  2  0
  5  6  1  0
  6  7  2  0
  7  8  1  0
  9 10  1  0
 10 11  1  0
 11 12  1  0
 11 23  2  0
 12 13  1  0
 12 20  1  0
 13 14  2  0
 13 19  1  0
 14 15  1  0
 15 16  2  0
 16 17  1  0
 16 19  1  0
 17 18  1  0
 20 21  1  0
 20 22  2  0
 22 23  1  0
M  END
>  <Formula>  (364) 
C17H15ClN4S

>  <FW>  (364) 
342.8458

>  <DSSTox_CID>  (364) 
3030

>  <NR-AR>  (364) 
0

>  <NR-AR-LBD>  (364) 
0

>  <NR-ER-LBD>  (364) 
0

>  <NR-PPAR-gamma>  (364) 
0

>  <SR-ARE>  (364) 
0

>  <SR-ATAD5>  (364) 
1

>  <SR-HSE>  (364) 
0

>  <SR-p53>  (364) 
0

$$$$
NCGC00091120-01
     RDKit          2D

 24 26  0  0  1  0  0  0  0  0999 V2000
    4.0506   -0.7100    0.0000 O   0  0  0  0  0  0  0  0  0  0  0  0
    3.8004   -1.5012    0.0000 C   0  0  0  0  0  0  0  0  0  0  0  0
    3.0092   -1.7582    0.0000 C   0  0  0  0  0  0  0  0  0  0  0  0
    3.0092   -2.5832    0.0000 C   0  0  0  0  0  0  0  0  0  0  0  0
    3.8004   -2.8334    0.0000 O   0  0  0  0  0  0  0  0  0  0  0  0
    4.2805   -2.1639    0.0000 C   0  0  0  0  0  0  0  0  0  0  0  0
    4.6998   -1.4539    0.0000 C   0  0  0  0  0  0  0  0  0  0  0  0
    5.5248   -1.4539    0.0000 C   0  0  0  0  0  0  0  0  0  0  0  0
    5.9372   -2.1639    0.0000 C   0  0  0  0  0  0  0  0  0  0  0  0
    6.7622   -2.1639    0.0000 O   0  0  0  0  0  0  0  0  0  0  0  0
    5.5248   -2.8807    0.0000 C   0  0  0  0  0  0  0  0  0  0  0  0
    4.6998   -2.8807    0.0000 C   0  0  0  0  0  0  0  0  0  0  0  0
    4.2805   -3.6042    0.0000 C   0  0  0  0  0  0  0  0  0  0  0  0
    4.5510   -0.6357    0.0000 O   0  0  0  0  0  0  0  0  0  0  0  0
    5.1867   -0.1082    0.0000 C   0  0  0  0  0  0  0  0  0  0  0  0
    2.2992   -2.9957    0.0000 C   0  0  0  0  0  0  0  0  0  0  0  0
    2.2992   -3.8207    0.0000 Cl  0  0  0  0  0  0  0  0  0  0  0  0
    1.5756   -2.5832    0.0000 C   0  0  0  0  0  0  0  0  0  0  0  0
    0.8588   -2.9957    0.0000 O   0  0  0  0  0  0  0  0  0  0  0  0
    0.0000   -2.0354    0.0000 C   0  0  0  0  0  0  0  0  0  0  0  0
    1.5756   -1.7582    0.0000 C   0  0  0  0  0  0  0  0  0  0  0  0
    2.2992   -1.3389    0.0000 C   0  0  0  0  0  0  0  0  0  0  0  0
    2.2992   -0.5139    0.0000 O   0  0  0  0  0  0  0  0  0  0  0  0
    1.0617    0.0000    0.0000 C   0  0  0  0  0  0  0  0  0  0  0  0
  1  2  2  0
  2  3  1  0
  6  2  1  0
  3  4  2  0
  3 22  1  0
  4  5  1  0
  4 16  1  0
  6  5  1  6
  6  7  1  0
  6 12  1  0
  7  8  2  0
  7 14  1  0
  8  9  1  0
  9 10  2  0
  9 11  1  0
 11 12  1  0
 12 13  1  1
 14 15  1  0
 16 17  1  0
 16 18  2  0
 18 19  1  0
 18 21  1  0
 19 20  1  0
 21 22  2  0
 22 23  1  0
 23 24  1  0
M  END
>  <Formula>  (365) 
C17H17ClO6

>  <FW>  (365) 
352.7663

>  <DSSTox_CID>  (365) 
674

>  <NR-AR>  (365) 
0

>  <NR-AR-LBD>  (365) 
0

>  <NR-ER>  (365) 
0

>  <NR-ER-LBD>  (365) 
0

>  <NR-PPAR-gamma>  (365) 
0

>  <NR-AhR>  (365) 
0

>  <SR-ATAD5>  (365) 
1

>  <SR-MMP>  (365) 
0

>  <SR-p53>  (365) 
1

$$$$
NCGC00164560-01
     RDKit          2D

 21 24  0  0  1  0  0  0  0  0999 V2000
    1.5925   -4.8339    0.0000 C   0  0  0  0  0  0  0  0  0  0  0  0
    1.8514   -5.6273    0.0000 C   0  0  0  0  0  0  0  0  0  0  0  0
    2.6730   -5.6273    0.0000 C   0  0  0  0  0  0  0  0  0  0  0  0
    2.9318   -4.8395    0.0000 C   0  0  0  0  0  0  0  0  0  0  0  0
    2.2565   -4.3443    0.0000 C   0  0  0  0  0  0  0  0  0  0  0  0
    0.8159   -4.5806    0.0000 C   0  0  0  0  0  0  0  0  0  0  0  0
    2.1384   -3.1794    0.0000 C   0  0  0  0  0  0  0  0  0  0  0  0
    2.1384   -2.3635    0.0000 C   0  0  0  0  0  0  0  0  0  0  0  0
    2.9318   -2.1102    0.0000 N   0  0  0  0  0  0  0  0  0  0  0  0
    2.9318   -3.4383    0.0000 N   0  0  0  0  0  0  0  0  0  0  0  0
    3.4214   -2.7743    0.0000 C   0  0  0  0  0  0  0  0  0  0  0  0
    1.4237   -3.6015    0.0000 N   0  0  0  0  0  0  0  0  0  0  0  0
    0.7146   -2.3635    0.0000 N   0  0  0  0  0  0  0  0  0  0  0  0
    0.7146   -3.1794    0.0000 C   0  0  0  0  0  0  0  0  0  0  0  0
    1.4237   -1.9471    0.0000 C   0  0  0  0  0  0  0  0  0  0  0  0
    0.0000   -3.6015    0.0000 N   0  0  0  0  0  0  0  0  0  0  0  0
    1.4237   -1.1255    0.0000 N   0  0  0  0  0  0  0  0  0  0  0  0
    2.1384   -0.7034    0.0000 C   0  0  0  0  0  0  0  0  0  0  0  0
    2.9712   -0.7034    0.0000 C   0  0  0  0  0  0  0  0  0  0  0  0
    2.5548    0.0000    0.0000 C   0  0  0  0  0  0  0  0  0  0  0  0
    0.1970   -5.1377    0.0000 O   0  0  0  0  0  0  0  0  0  0  0  0
  1  2  1  0
  1  5  1  0
  1  6  1  1
  2  3  2  0
  3  4  1  0
  4  5  1  0
  4 10  1  6
  6 21  1  0
  7  8  2  0
  7 10  1  0
  7 12  1  0
  8  9  1  0
  8 15  1  0
  9 11  2  0
 10 11  1  0
 12 14  2  0
 13 14  1  0
 13 15  2  0
 14 16  1  0
 15 17  1  0
 17 18  1  0
 18 19  1  0
 18 20  1  0
 19 20  1  0
M  END
>  <Formula>  (366) 
C14H18N6O

>  <FW>  (366) 
286.3323

>  <DSSTox_CID>  (366) 
26444

>  <NR-AR>  (366) 
0

>  <NR-AR-LBD>  (366) 
0

>  <NR-ER>  (366) 
1

>  <NR-ER-LBD>  (366) 
0

>  <NR-PPAR-gamma>  (366) 
0

>  <NR-AhR>  (366) 
1

>  <SR-ATAD5>  (366) 
1

>  <SR-MMP>  (366) 
0

>  <SR-p53>  (366) 
0

$$$$
NCGC00185753-01
     RDKit          2D

 46 52  0  0  1  0  0  0  0  0999 V2000
    0.7125   -4.1158    0.0000 P   0  0  0  0  0  0  0  0  0  0  0  0
    0.0000   -3.7126    0.0000 O   0  0  0  0  0  0  0  0  0  0  0  0
    1.4344   -4.5376    0.0000 O   0  0  0  0  0  0  0  0  0  0  0  0
    0.3000   -4.8376    0.0000 O   0  0  0  0  0  0  0  0  0  0  0  0
    2.3907   -1.2750    0.0000 C   0  0  0  0  0  0  0  0  0  0  0  0
    1.9500   -1.9782    0.0000 O   0  0  0  0  0  0  0  0  0  0  0  0
    2.3626   -2.7001    0.0000 C   0  0  0  0  0  0  0  0  0  0  0  0
    3.1876   -2.7001    0.0000 C   0  0  0  0  0  0  0  0  0  0  0  0
    3.6001   -3.4032    0.0000 C   0  0  0  0  0  0  0  0  0  0  0  0
    3.1876   -4.1251    0.0000 C   0  0  0  0  0  0  0  0  0  0  0  0
    2.3626   -4.1251    0.0000 C   0  0  0  0  0  0  0  0  0  0  0  0
    1.9500   -4.8470    0.0000 O   0  0  0  0  0  0  0  0  0  0  0  0
    2.2969   -5.5877    0.0000 C   0  0  0  0  0  0  0  0  0  0  0  0
    1.9500   -3.4032    0.0000 C   0  0  0  0  0  0  0  0  0  0  0  0
    1.1250   -3.4032    0.0000 O   0  0  0  0  0  0  0  0  0  0  0  0
    4.4251   -3.4032    0.0000 C   0  0  0  0  0  0  0  0  0  0  0  0
    4.8376   -2.7001    0.0000 C   0  0  0  0  0  0  0  0  0  0  0  0
    4.4251   -1.9782    0.0000 C   0  0  0  0  0  0  0  0  0  0  0  0
    4.8376   -1.2656    0.0000 C   0  0  0  0  0  0  0  0  0  0  0  0
    4.5845   -0.4781    0.0000 O   0  0  0  0  0  0  0  0  0  0  0  0
    5.2502    0.0000    0.0000 C   0  0  0  0  0  0  0  0  0  0  0  0
    5.9158   -0.4781    0.0000 O   0  0  0  0  0  0  0  0  0  0  0  0
    5.6626   -1.2656    0.0000 C   0  0  0  0  0  0  0  0  0  0  0  0
    6.0752   -1.9782    0.0000 C   0  0  0  0  0  0  0  0  0  0  0  0
    5.6626   -2.7001    0.0000 C   0  0  0  0  0  0  0  0  0  0  0  0
    6.0752   -3.4032    0.0000 C   0  0  0  0  0  0  0  0  0  0  0  0
    6.9002   -3.4032    0.0000 O   0  0  0  0  0  0  0  0  0  0  0  0
    7.3127   -4.1251    0.0000 C   0  0  0  0  0  0  0  0  0  0  0  0
    6.9002   -4.8470    0.0000 O   0  0  0  0  0  0  0  0  0  0  0  0
    7.3127   -5.5501    0.0000 C   0  0  0  0  0  0  0  0  0  0  0  0
    6.9002   -6.2627    0.0000 C   0  0  0  0  0  0  0  0  0  0  0  0
    7.3127   -6.9845    0.0000 O   0  0  0  0  0  0  0  0  0  0  0  0
    8.1471   -6.9845    0.0000 C   0  0  0  0  0  0  0  0  0  0  0  0
    8.5502   -7.6970    0.0000 C   0  0  0  0  0  0  0  0  0  0  0  0
    8.5502   -6.2627    0.0000 O   0  0  0  0  0  0  0  0  0  0  0  0
    8.1471   -5.5501    0.0000 C   0  0  0  0  0  0  0  0  0  0  0  0
    8.5502   -4.8470    0.0000 C   0  0  0  0  0  0  0  0  0  0  0  0
    9.3752   -4.8470    0.0000 O   0  0  0  0  0  0  0  0  0  0  0  0
    8.1471   -4.1251    0.0000 C   0  0  0  0  0  0  0  0  0  0  0  0
    8.5502   -3.4032    0.0000 O   0  0  0  0  0  0  0  0  0  0  0  0
    5.6626   -4.1251    0.0000 C   0  0  0  0  0  0  0  0  0  0  0  0
    5.9158   -4.9033    0.0000 C   0  0  0  0  0  0  0  0  0  0  0  0
    5.2502   -5.3908    0.0000 O   0  0  0  0  0  0  0  0  0  0  0  0
    4.5845   -4.9033    0.0000 C   0  0  0  0  0  0  0  0  0  0  0  0
    3.7970   -5.1658    0.0000 O   0  0  0  0  0  0  0  0  0  0  0  0
    4.8376   -4.1251    0.0000 C   0  0  0  0  0  0  0  0  0  0  0  0
  1  2  1  0
  1  3  2  0
  1  4  1  0
  1 15  1  0
  5  6  1  0
  6  7  1  0
  7  8  2  0
  7 14  1  0
  8  9  1  0
  9 10  2  0
 16  9  1  6
 10 11  1  0
 11 12  1  0
 11 14  2  0
 12 13  1  0
 14 15  1  0
 16 17  1  0
 16 46  1  0
 17 18  2  0
 17 25  1  0
 18 19  1  0
 19 20  1  0
 19 23  2  0
 20 21  1  0
 21 22  1  0
 22 23  1  0
 23 24  1  0
 24 25  2  0
 25 26  1  0
 26 27  1  0
 26 41  1  0
 28 27  1  1
 28 29  1  0
 28 39  1  0
 30 29  1  0
 30 31  1  1
 30 36  1  0
 31 32  1  0
 32 33  1  0
 33 34  1  6
 33 35  1  0
 36 35  1  6
 36 37  1  0
 37 38  1  1
 37 39  1  0
 39 40  1  6
 41 42  1  0
 41 46  1  0
 42 43  1  0
 43 44  1  0
 44 45  2  0
 46 44  1  6
M  END
>  <Formula>  (367) 
C29H33O16P

>  <FW>  (367) 
668.5365

>  <DSSTox_CID>  (367) 
28571

>  <NR-Aromatase>  (367) 
0

>  <NR-AR>  (367) 
0

>  <NR-AR-LBD>  (367) 
0

>  <NR-ER>  (367) 
0

>  <NR-ER-LBD>  (367) 
0

>  <NR-PPAR-gamma>  (367) 
0

>  <NR-AhR>  (367) 
0

>  <SR-ATAD5>  (367) 
1

>  <SR-MMP>  (367) 
0

>  <SR-p53>  (367) 
1

$$$$
NCGC00254359-01
     RDKit          2D

 29 31  0  0  1  0  0  0  0  0999 V2000
    3.5234   -2.5766    0.0000 C   0  0  0  0  0  0  0  0  0  0  0  0
    4.3281   -2.4008    0.0000 C   0  0  0  0  0  0  0  0  0  0  0  0
    2.8877   -2.0491    0.0000 C   0  0  0  0  0  0  0  0  0  0  0  0
    2.1776   -2.4616    0.0000 C   0  0  0  0  0  0  0  0  0  0  0  0
    4.9773   -2.8877    0.0000 C   0  0  0  0  0  0  0  0  0  0  0  0
    1.4472   -2.0491    0.0000 C   0  0  0  0  0  0  0  0  0  0  0  0
    3.1785   -3.3137    0.0000 C   0  0  0  0  0  0  0  0  0  0  0  0
    2.8877   -1.2240    0.0000 C   0  0  0  0  0  0  0  0  0  0  0  0
    4.9773   -3.7127    0.0000 C   0  0  0  0  0  0  0  0  0  0  0  0
    4.6730   -1.6501    0.0000 C   0  0  0  0  0  0  0  0  0  0  0  0
    1.4472   -1.2376    0.0000 C   0  0  0  0  0  0  0  0  0  0  0  0
    3.5234   -4.0508    0.0000 C   0  0  0  0  0  0  0  0  0  0  0  0
    4.3484   -4.2267    0.0000 C   0  0  0  0  0  0  0  0  0  0  0  0
    5.5251   -1.6501    0.0000 N   0  0  0  0  0  0  0  0  0  0  0  0
    2.1776   -0.8251    0.0000 C   0  0  0  0  0  0  0  0  0  0  0  0
    5.9241   -0.9400    0.0000 C   0  0  0  0  0  0  0  0  0  0  0  0
    3.5234   -0.7236    0.0000 C   0  0  0  0  0  0  0  0  0  0  0  0
    5.7280   -4.1117    0.0000 O   0  0  0  0  0  0  0  0  0  0  0  0
    4.3281   -0.9129    0.0000 C   0  0  0  0  0  0  0  0  0  0  0  0
    5.5116   -0.2097    0.0000 O   0  0  0  0  0  0  0  0  0  0  0  0
    2.1776   -3.2867    0.0000 O   0  0  0  0  0  0  0  0  0  0  0  0
    0.7101   -2.4481    0.0000 O   0  0  0  0  0  0  0  0  0  0  0  0
    0.7101   -0.8386    0.0000 O   0  0  0  0  0  0  0  0  0  0  0  0
    4.5648   -5.0247    0.0000 O   0  0  0  0  0  0  0  0  0  0  0  0
    6.7627   -0.9400    0.0000 C   0  0  0  0  0  0  0  0  0  0  0  0
    1.4405   -3.6992    0.0000 C   0  0  0  0  0  0  0  0  0  0  0  0
    0.0000   -2.0017    0.0000 C   0  0  0  0  0  0  0  0  0  0  0  0
    0.7101    0.0000    0.0000 C   0  0  0  0  0  0  0  0  0  0  0  0
    5.3155   -5.0247    0.0000 C   0  0  0  0  0  0  0  0  0  0  0  0
  1  2  1  0
  1  3  1  0
  1  7  2  0
  2  5  2  0
  2 10  1  0
  3  4  2  0
  3  8  1  0
  4  6  1  0
  4 21  1  0
  5  9  1  0
  6 22  1  0
  6 11  2  0
  7 12  1  0
  8 15  2  0
  8 17  1  0
  9 18  2  0
  9 13  1  0
 10 14  1  6
 10 19  1  0
 11 15  1  0
 11 23  1  0
 12 13  2  0
 13 24  1  0
 14 16  1  0
 16 20  2  0
 16 25  1  0
 17 19  1  0
 21 26  1  0
 22 27  1  0
 23 28  1  0
 24 29  1  0
M  END
>  <Formula>  (368) 
C22H25NO6

>  <FW>  (368) 
399.4370

>  <DSSTox_CID>  (368) 
4845

>  <NR-AR>  (368) 
0

>  <NR-ER>  (368) 
0

>  <NR-ER-LBD>  (368) 
0

>  <NR-AhR>  (368) 
0

>  <SR-ARE>  (368) 
1

>  <SR-ATAD5>  (368) 
1

>  <SR-HSE>  (368) 
0

>  <SR-MMP>  (368) 
1

>  <SR-p53>  (368) 
0

$$$$
NCGC00259784-01
     RDKit          2D

 24 26  0  0  1  0  0  0  0  0999 V2000
    4.0506   -0.7100    0.0000 O   0  0  0  0  0  0  0  0  0  0  0  0
    3.8004   -1.5012    0.0000 C   0  0  0  0  0  0  0  0  0  0  0  0
    3.0092   -1.7582    0.0000 C   0  0  0  0  0  0  0  0  0  0  0  0
    3.0092   -2.5832    0.0000 C   0  0  0  0  0  0  0  0  0  0  0  0
    3.8004   -2.8334    0.0000 O   0  0  0  0  0  0  0  0  0  0  0  0
    4.2805   -2.1639    0.0000 C   0  0  0  0  0  0  0  0  0  0  0  0
    4.6998   -1.4539    0.0000 C   0  0  0  0  0  0  0  0  0  0  0  0
    5.5248   -1.4539    0.0000 C   0  0  0  0  0  0  0  0  0  0  0  0
    5.9372   -2.1639    0.0000 C   0  0  0  0  0  0  0  0  0  0  0  0
    6.7622   -2.1639    0.0000 O   0  0  0  0  0  0  0  0  0  0  0  0
    5.5248   -2.8807    0.0000 C   0  0  0  0  0  0  0  0  0  0  0  0
    4.6998   -2.8807    0.0000 C   0  0  0  0  0  0  0  0  0  0  0  0
    4.2805   -3.6042    0.0000 C   0  0  0  0  0  0  0  0  0  0  0  0
    4.5510   -0.6357    0.0000 O   0  0  0  0  0  0  0  0  0  0  0  0
    5.1867   -0.1082    0.0000 C   0  0  0  0  0  0  0  0  0  0  0  0
    2.2992   -2.9957    0.0000 C   0  0  0  0  0  0  0  0  0  0  0  0
    2.2992   -3.8207    0.0000 Cl  0  0  0  0  0  0  0  0  0  0  0  0
    1.5756   -2.5832    0.0000 C   0  0  0  0  0  0  0  0  0  0  0  0
    0.8588   -2.9957    0.0000 O   0  0  0  0  0  0  0  0  0  0  0  0
    0.0000   -2.0354    0.0000 C   0  0  0  0  0  0  0  0  0  0  0  0
    1.5756   -1.7582    0.0000 C   0  0  0  0  0  0  0  0  0  0  0  0
    2.2992   -1.3389    0.0000 C   0  0  0  0  0  0  0  0  0  0  0  0
    2.2992   -0.5139    0.0000 O   0  0  0  0  0  0  0  0  0  0  0  0
    1.0617    0.0000    0.0000 C   0  0  0  0  0  0  0  0  0  0  0  0
  1  2  2  0
  2  3  1  0
  6  2  1  0
  3  4  2  0
  3 22  1  0
  4  5  1  0
  4 16  1  0
  6  5  1  6
  6  7  1  0
  6 12  1  0
  7  8  2  0
  7 14  1  0
  8  9  1  0
  9 10  2  0
  9 11  1  0
 11 12  1  0
 12 13  1  1
 14 15  1  0
 16 17  1  0
 16 18  2  0
 18 19  1  0
 18 21  1  0
 19 20  1  0
 21 22  2  0
 22 23  1  0
 23 24  1  0
M  END
>  <Formula>  (369) 
C17H17ClO6

>  <FW>  (369) 
352.7663

>  <DSSTox_CID>  (369) 
674

>  <NR-Aromatase>  (369) 
1

>  <NR-AR>  (369) 
0

>  <NR-AR-LBD>  (369) 
0

>  <NR-ER>  (369) 
0

>  <NR-ER-LBD>  (369) 
0

>  <NR-PPAR-gamma>  (369) 
1

>  <NR-AhR>  (369) 
0

>  <SR-ATAD5>  (369) 
1

>  <SR-HSE>  (369) 
0

>  <SR-MMP>  (369) 
0

>  <SR-p53>  (369) 
1

$$$$
NCGC00256353-01
     RDKit          2D

 24 26  0  0  1  0  0  0  0  0999 V2000
    4.0506   -0.7100    0.0000 O   0  0  0  0  0  0  0  0  0  0  0  0
    3.8004   -1.5012    0.0000 C   0  0  0  0  0  0  0  0  0  0  0  0
    3.0092   -1.7582    0.0000 C   0  0  0  0  0  0  0  0  0  0  0  0
    3.0092   -2.5832    0.0000 C   0  0  0  0  0  0  0  0  0  0  0  0
    3.8004   -2.8334    0.0000 O   0  0  0  0  0  0  0  0  0  0  0  0
    4.2805   -2.1639    0.0000 C   0  0  0  0  0  0  0  0  0  0  0  0
    4.6998   -1.4539    0.0000 C   0  0  0  0  0  0  0  0  0  0  0  0
    5.5248   -1.4539    0.0000 C   0  0  0  0  0  0  0  0  0  0  0  0
    5.9372   -2.1639    0.0000 C   0  0  0  0  0  0  0  0  0  0  0  0
    6.7622   -2.1639    0.0000 O   0  0  0  0  0  0  0  0  0  0  0  0
    5.5248   -2.8807    0.0000 C   0  0  0  0  0  0  0  0  0  0  0  0
    4.6998   -2.8807    0.0000 C   0  0  0  0  0  0  0  0  0  0  0  0
    4.2805   -3.6042    0.0000 C   0  0  0  0  0  0  0  0  0  0  0  0
    4.5510   -0.6357    0.0000 O   0  0  0  0  0  0  0  0  0  0  0  0
    5.1867   -0.1082    0.0000 C   0  0  0  0  0  0  0  0  0  0  0  0
    2.2992   -2.9957    0.0000 C   0  0  0  0  0  0  0  0  0  0  0  0
    2.2992   -3.8207    0.0000 Cl  0  0  0  0  0  0  0  0  0  0  0  0
    1.5756   -2.5832    0.0000 C   0  0  0  0  0  0  0  0  0  0  0  0
    0.8588   -2.9957    0.0000 O   0  0  0  0  0  0  0  0  0  0  0  0
    0.0000   -2.0354    0.0000 C   0  0  0  0  0  0  0  0  0  0  0  0
    1.5756   -1.7582    0.0000 C   0  0  0  0  0  0  0  0  0  0  0  0
    2.2992   -1.3389    0.0000 C   0  0  0  0  0  0  0  0  0  0  0  0
    2.2992   -0.5139    0.0000 O   0  0  0  0  0  0  0  0  0  0  0  0
    1.0617    0.0000    0.0000 C   0  0  0  0  0  0  0  0  0  0  0  0
  1  2  2  0
  2  3  1  0
  6  2  1  0
  3  4  2  0
  3 22  1  0
  4  5  1  0
  4 16  1  0
  6  5  1  6
  6  7  1  0
  6 12  1  0
  7  8  2  0
  7 14  1  0
  8  9  1  0
  9 10  2  0
  9 11  1  0
 11 12  1  0
 12 13  1  1
 14 15  1  0
 16 17  1  0
 16 18  2  0
 18 19  1  0
 18 21  1  0
 19 20  1  0
 21 22  2  0
 22 23  1  0
 23 24  1  0
M  END
>  <Formula>  (370) 
C17H17ClO6

>  <FW>  (370) 
352.7663

>  <DSSTox_CID>  (370) 
674

>  <NR-Aromatase>  (370) 
1

>  <NR-AR>  (370) 
0

>  <NR-AR-LBD>  (370) 
0

>  <NR-ER>  (370) 
0

>  <NR-ER-LBD>  (370) 
0

>  <NR-PPAR-gamma>  (370) 
0

>  <SR-ATAD5>  (370) 
1

>  <SR-HSE>  (370) 
0

>  <SR-MMP>  (370) 
0

>  <SR-p53>  (370) 
1

$$$$
NCGC00254640-01
     RDKit          2D

 23 26  0  0  0  0  0  0  0  0999 V2000
    2.7236   -1.4552    0.0000 C   0  0  0  0  0  0  0  0  0  0  0  0
    1.4358   -1.0237    0.0000 C   0  0  0  0  0  0  0  0  0  0  0  0
    2.2149   -0.7919    0.0000 C   0  0  0  0  0  0  0  0  0  0  0  0
    1.4358   -1.8929    0.0000 C   0  0  0  0  0  0  0  0  0  0  0  0
    2.2149   -2.1248    0.0000 C   0  0  0  0  0  0  0  0  0  0  0  0
    0.7147   -0.6245    0.0000 C   0  0  0  0  0  0  0  0  0  0  0  0
    0.7147   -2.2921    0.0000 C   0  0  0  0  0  0  0  0  0  0  0  0
    0.0000   -1.8929    0.0000 C   0  0  0  0  0  0  0  0  0  0  0  0
    0.0000   -1.0237    0.0000 C   0  0  0  0  0  0  0  0  0  0  0  0
    2.4918   -2.9167    0.0000 O   0  0  0  0  0  0  0  0  0  0  0  0
    2.4918    0.0000    0.0000 O   0  0  0  0  0  0  0  0  0  0  0  0
    3.9726   -0.7340    0.0000 N   0  0  0  0  0  0  0  0  0  0  0  0
    4.8097   -0.7340    0.0000 C   0  0  0  0  0  0  0  0  0  0  0  0
    5.2089   -1.4358    0.0000 C   0  0  0  0  0  0  0  0  0  0  0  0
    3.5413   -1.4552    0.0000 C   0  0  0  0  0  0  0  0  0  0  0  0
    5.1895   -0.0193    0.0000 C   0  0  0  0  0  0  0  0  0  0  0  0
    6.0266   -1.4552    0.0000 C   0  0  0  0  0  0  0  0  0  0  0  0
    4.8097   -2.1634    0.0000 C   0  0  0  0  0  0  0  0  0  0  0  0
    3.9726   -2.1634    0.0000 C   0  0  0  0  0  0  0  0  0  0  0  0
    6.4387   -0.7340    0.0000 C   0  0  0  0  0  0  0  0  0  0  0  0
    6.0266   -0.0193    0.0000 C   0  0  0  0  0  0  0  0  0  0  0  0
    5.2089   -2.8780    0.0000 Br  0  0  0  0  0  0  0  0  0  0  0  0
    3.5606   -2.8974    0.0000 O   0  0  0  0  0  0  0  0  0  0  0  0
  1  3  1  0
  1  5  1  0
  1 15  1  0
  2  3  1  0
  2  4  2  0
  2  6  1  0
  3 11  2  0
  4  5  1  0
  4  7  1  0
  5 10  2  0
  6  9  2  0
  7  8  2  0
  8  9  1  0
 12 13  2  0
 12 15  1  0
 13 14  1  0
 13 16  1  0
 14 17  1  0
 14 18  2  0
 15 19  2  0
 16 21  2  0
 17 20  2  0
 18 19  1  0
 18 22  1  0
 19 23  1  0
 20 21  1  0
M  END
>  <Formula>  (371) 
C18H10BrNO3

>  <FW>  (371) 
368.1809

>  <DSSTox_CID>  (371) 
24503

>  <NR-Aromatase>  (371) 
0

>  <NR-AR>  (371) 
0

>  <NR-AR-LBD>  (371) 
0

>  <NR-ER>  (371) 
0

>  <NR-ER-LBD>  (371) 
0

>  <NR-PPAR-gamma>  (371) 
0

>  <NR-AhR>  (371) 
1

>  <SR-ARE>  (371) 
1

>  <SR-ATAD5>  (371) 
1

>  <SR-HSE>  (371) 
0

>  <SR-MMP>  (371) 
1

>  <SR-p53>  (371) 
0

$$$$
NCGC00015747-09
     RDKit          2D

 35 37  0  0  0  0  0  0  0  0999 V2000
    0.7134   -2.8877    0.0000 C   0  0  0  0  0  0  0  0  0  0  0  0
    0.0000   -2.4751    0.0000 C   0  0  0  0  0  0  0  0  0  0  0  0
    1.4352   -2.4751    0.0000 C   0  0  0  0  0  0  0  0  0  0  0  0
    1.4352   -1.6501    0.0000 C   0  0  0  0  0  0  0  0  0  0  0  0
    2.1486   -1.2376    0.0000 O   0  0  0  0  0  0  0  0  0  0  0  0
    0.7134   -1.2376    0.0000 O   0  0  0  0  0  0  0  0  0  0  0  0
    0.0000   -1.6501    0.0000 C   0  0  0  0  0  0  0  0  0  0  0  0
    2.1486   -2.8877    0.0000 C   0  0  0  0  0  0  0  0  0  0  0  0
    2.8619   -2.4751    0.0000 C   0  0  0  0  0  0  0  0  0  0  0  0
    3.5838   -2.8877    0.0000 C   0  0  0  0  0  0  0  0  0  0  0  0
    4.2971   -2.4751    0.0000 C   0  0  0  0  0  0  0  0  0  0  0  0
    4.2971   -1.6501    0.0000 C   0  0  0  0  0  0  0  0  0  0  0  0
    3.5838   -1.2376    0.0000 C   0  0  0  0  0  0  0  0  0  0  0  0
    3.5838   -0.4125    0.0000 N   0  0  0  0  0  0  0  0  0  0  0  0
    4.2971    0.0000    0.0000 O   0  0  0  0  0  0  0  0  0  0  0  0
    2.8619    0.0000    0.0000 O   0  0  0  0  0  0  0  0  0  0  0  0
    2.8619   -1.6501    0.0000 C   0  0  0  0  0  0  0  0  0  0  0  0
    2.1486   -3.7213    0.0000 C   0  0  0  0  0  0  0  0  0  0  0  0
    2.8619   -4.1338    0.0000 C   0  0  0  0  0  0  0  0  0  0  0  0
    2.8619   -4.9589    0.0000 O   0  0  0  0  0  0  0  0  0  0  0  0
    3.5838   -3.7213    0.0000 O   0  0  0  0  0  0  0  0  0  0  0  0
    4.2971   -4.1338    0.0000 C   0  0  0  0  0  0  0  0  0  0  0  0
    5.0104   -3.7213    0.0000 C   0  0  0  0  0  0  0  0  0  0  0  0
    5.7324   -4.1338    0.0000 N   0  0  0  0  0  0  0  0  0  0  0  0
    5.7324   -4.9589    0.0000 C   0  0  0  0  0  0  0  0  0  0  0  0
    6.4457   -3.7213    0.0000 C   0  0  0  0  0  0  0  0  0  0  0  0
    7.1590   -4.1338    0.0000 C   0  0  0  0  0  0  0  0  0  0  0  0
    7.8809   -3.7213    0.0000 C   0  0  0  0  0  0  0  0  0  0  0  0
    8.5943   -4.1338    0.0000 C   0  0  0  0  0  0  0  0  0  0  0  0
    8.5943   -4.9589    0.0000 C   0  0  0  0  0  0  0  0  0  0  0  0
    7.8809   -5.3714    0.0000 C   0  0  0  0  0  0  0  0  0  0  0  0
    7.1590   -4.9589    0.0000 C   0  0  0  0  0  0  0  0  0  0  0  0
    1.4352   -4.1338    0.0000 C   0  0  0  0  0  0  0  0  0  0  0  0
    1.4352   -4.9589    0.0000 C   0  0  0  0  0  0  0  0  0  0  0  0
    0.7134   -3.7213    0.0000 N   0  0  0  0  0  0  0  0  0  0  0  0
  1  2  1  0
  1  3  2  0
  1 35  1  0
  3  4  1  0
  3  8  1  0
  4  5  2  0
  4  6  1  0
  6  7  1  0
  8  9  1  0
  8 18  1  0
  9 10  2  0
  9 17  1  0
 10 11  1  0
 11 12  2  0
 12 13  1  0
 13 14  1  0
 13 17  2  0
 14 15  1  0
 14 16  2  0
 18 19  1  0
 18 33  2  0
 19 20  2  0
 19 21  1  0
 21 22  1  0
 22 23  1  0
 23 24  1  0
 24 25  1  0
 24 26  1  0
 26 27  1  0
 27 28  2  0
 27 32  1  0
 28 29  1  0
 29 30  2  0
 30 31  1  0
 31 32  2  0
 33 34  1  0
 33 35  1  0
M  CHG  2  14   1  15  -1
M  END
>  <Formula>  (372) 
C26H29N3O6

>  <FW>  (372) 
479.5250

>  <DSSTox_CID>  (372) 
3363

>  <SR-HSE>  (372) 
1

$$$$
NCGC00253588-01
     RDKit          2D

 33 37  0  0  1  0  0  0  0  0999 V2000
    6.9470   -0.8068    0.0000 C   0  0  0  0  0  0  0  0  0  0  0  0
    6.1259   -0.8068    0.0000 C   0  0  0  0  0  0  0  0  0  0  0  0
    5.7118   -1.5208    0.0000 C   0  0  0  0  0  0  0  0  0  0  0  0
    5.3048   -0.8068    0.0000 O   0  0  0  0  0  0  0  0  0  0  0  0
    6.4258   -1.9349    0.0000 C   0  0  0  0  0  0  0  0  0  0  0  0
    7.1398   -1.5208    0.0000 O   0  0  0  0  0  0  0  0  0  0  0  0
    6.4258   -2.7560    0.0000 O   0  0  0  0  0  0  0  0  0  0  0  0
    5.7118   -3.1701    0.0000 C   0  0  0  0  0  0  0  0  0  0  0  0
    4.9979   -2.7560    0.0000 C   0  0  0  0  0  0  0  0  0  0  0  0
    4.9979   -1.9349    0.0000 C   0  0  0  0  0  0  0  0  0  0  0  0
    4.2910   -1.5208    0.0000 C   0  0  0  0  0  0  0  0  0  0  0  0
    3.5770   -1.9349    0.0000 C   0  0  0  0  0  0  0  0  0  0  0  0
    3.5770   -2.7560    0.0000 N   0  0  0  0  0  0  0  0  0  0  0  0
    2.7916   -3.0130    0.0000 C   0  0  0  0  0  0  0  0  0  0  0  0
    2.3061   -2.3419    0.0000 C   0  0  0  0  0  0  0  0  0  0  0  0
    1.4922   -2.2561    0.0000 C   0  0  0  0  0  0  0  0  0  0  0  0
    1.0067   -2.9273    0.0000 C   0  0  0  0  0  0  0  0  0  0  0  0
    1.3423   -3.6770    0.0000 N   0  0  0  0  0  0  0  0  0  0  0  0
    0.8567   -4.3410    0.0000 O   0  0  0  0  0  0  0  0  0  0  0  0
    1.1923   -5.0978    0.0000 C   0  0  0  0  0  0  0  0  0  0  0  0
    0.4355   -5.4334    0.0000 C   0  0  0  0  0  0  0  0  0  0  0  0
    1.9420   -4.7622    0.0000 C   0  0  0  0  0  0  0  0  0  0  0  0
    1.5279   -5.8475    0.0000 C   0  0  0  0  0  0  0  0  0  0  0  0
    1.1567   -1.5065    0.0000 C   0  0  0  0  0  0  0  0  0  0  0  0
    0.3356   -1.4208    0.0000 C   0  0  0  0  0  0  0  0  0  0  0  0
    0.0000   -0.6712    0.0000 C   0  0  0  0  0  0  0  0  0  0  0  0
    0.4855    0.0000    0.0000 C   0  0  0  0  0  0  0  0  0  0  0  0
    1.3066   -0.0857    0.0000 C   0  0  0  0  0  0  0  0  0  0  0  0
    1.6350   -0.8425    0.0000 C   0  0  0  0  0  0  0  0  0  0  0  0
    2.4561   -0.9281    0.0000 N   0  0  0  0  0  0  0  0  0  0  0  0
    2.7916   -1.6778    0.0000 C   0  0  0  0  0  0  0  0  0  0  0  0
    4.2910   -3.1701    0.0000 C   0  0  0  0  0  0  0  0  0  0  0  0
    4.2910   -3.9911    0.0000 O   0  0  0  0  0  0  0  0  0  0  0  0
  1  2  1  0
  2  3  1  0
  3  4  1  6
  3  5  1  0
  3 10  1  0
  5  6  2  0
  5  7  1  0
  7  8  1  0
  8  9  1  0
  9 10  2  0
  9 32  1  0
 10 11  1  0
 11 12  2  0
 12 13  1  0
 12 31  1  0
 13 14  1  0
 13 32  1  0
 14 15  1  0
 15 16  1  0
 15 31  2  0
 16 17  1  0
 16 24  2  0
 17 18  2  0
 18 19  1  0
 19 20  1  0
 20 21  1  0
 20 22  1  0
 20 23  1  0
 24 25  1  0
 24 29  1  0
 25 26  2  0
 26 27  1  0
 27 28  2  0
 28 29  1  0
 29 30  2  0
 30 31  1  0
 32 33  2  0
M  END
>  <Formula>  (373) 
C25H25N3O5

>  <FW>  (373) 
447.4831

>  <DSSTox_CID>  (373) 
31491

>  <SR-HSE>  (373) 
1

$$$$
NCGC00274067-01
     RDKit          2D

 33 36  0  0  0  0  0  0  0  0999 V2000
    6.3998   -7.7386    0.0000 C   0  0  0  0  0  0  0  0  0  0  0  0
    5.6801   -7.3207    0.0000 C   0  0  0  0  0  0  0  0  0  0  0  0
    4.9682   -7.7386    0.0000 C   0  0  0  0  0  0  0  0  0  0  0  0
    4.2484   -7.3207    0.0000 C   0  0  0  0  0  0  0  0  0  0  0  0
    4.2484   -6.5004    0.0000 C   0  0  0  0  0  0  0  0  0  0  0  0
    4.9682   -6.0902    0.0000 C   0  0  0  0  0  0  0  0  0  0  0  0
    5.6801   -6.5004    0.0000 C   0  0  0  0  0  0  0  0  0  0  0  0
    6.3998   -6.0902    0.0000 C   0  0  0  0  0  0  0  0  0  0  0  0
    3.5365   -6.0902    0.0000 N   0  0  0  0  0  0  0  0  0  0  0  0
    2.7782   -6.4308    0.0000 N   0  0  0  0  0  0  0  0  0  0  0  0
    2.2364   -5.8117    0.0000 C   0  0  0  0  0  0  0  0  0  0  0  0
    1.4084   -5.9045    0.0000 C   0  0  0  0  0  0  0  0  0  0  0  0
    2.6389   -5.0997    0.0000 C   0  0  0  0  0  0  0  0  0  0  0  0
    2.3061   -4.3413    0.0000 N   0  0  0  0  0  0  0  0  0  0  0  0
    1.4936   -4.2640    0.0000 N   0  0  0  0  0  0  0  0  0  0  0  0
    1.1531   -3.5056    0.0000 C   0  0  0  0  0  0  0  0  0  0  0  0
    0.3405   -3.4205    0.0000 C   0  0  0  0  0  0  0  0  0  0  0  0
    0.0000   -2.6621    0.0000 C   0  0  0  0  0  0  0  0  0  0  0  0
    0.4875   -1.9966    0.0000 C   0  0  0  0  0  0  0  0  0  0  0  0
    1.3001   -2.0894    0.0000 C   0  0  0  0  0  0  0  0  0  0  0  0
    1.6406   -2.8401    0.0000 C   0  0  0  0  0  0  0  0  0  0  0  0
    2.4531   -2.9174    0.0000 O   0  0  0  0  0  0  0  0  0  0  0  0
    1.7876   -1.4239    0.0000 C   0  0  0  0  0  0  0  0  0  0  0  0
    1.4471   -0.6655    0.0000 C   0  0  0  0  0  0  0  0  0  0  0  0
    1.9347    0.0000    0.0000 C   0  0  0  0  0  0  0  0  0  0  0  0
    2.7550   -0.0774    0.0000 C   0  0  0  0  0  0  0  0  0  0  0  0
    3.0877   -0.8357    0.0000 C   0  0  0  0  0  0  0  0  0  0  0  0
    2.6002   -1.5013    0.0000 C   0  0  0  0  0  0  0  0  0  0  0  0
    3.9157   -0.9209    0.0000 C   0  0  0  0  0  0  0  0  0  0  0  0
    4.2484   -1.6792    0.0000 O   0  0  0  0  0  0  0  0  0  0  0  0
    4.4032   -0.2554    0.0000 O   0  0  0  0  0  0  0  0  0  0  0  0
    3.4437   -5.2622    0.0000 C   0  0  0  0  0  0  0  0  0  0  0  0
    4.0628   -4.7205    0.0000 O   0  0  0  0  0  0  0  0  0  0  0  0
  1  2  1  0
  2  3  2  0
  2  7  1  0
  3  4  1  0
  4  5  2  0
  5  6  1  0
  5  9  1  0
  6  7  2  0
  7  8  1  0
  9 10  1  0
  9 32  1  0
 10 11  2  0
 11 12  1  0
 11 13  1  0
 13 14  2  0
 13 32  1  0
 14 15  1  0
 15 16  1  0
 16 17  2  0
 16 21  1  0
 17 18  1  0
 18 19  2  0
 19 20  1  0
 20 21  2  0
 20 23  1  0
 21 22  1  0
 23 24  2  0
 23 28  1  0
 24 25  1  0
 25 26  2  0
 26 27  1  0
 27 28  2  0
 27 29  1  0
 29 30  1  0
 29 31  2  0
 32 33  2  0
M  END
>  <Formula>  (374) 
C25H22N4O4

>  <FW>  (374) 
442.4666

>  <DSSTox_CID>  (374) 
31542

>  <SR-HSE>  (374) 
1

$$$$
NCGC00023699-09
     RDKit          2D

 26 28  0  0  1  0  0  0  0  0999 V2000
    4.4851   -2.2908    0.0000 N   0  0  0  0  0  0  0  0  0  0  0  0
    3.6600   -2.2908    0.0000 C   0  0  0  0  0  0  0  0  0  0  0  0
    4.4851   -1.4658    0.0000 C   0  0  0  0  0  0  0  0  0  0  0  0
    3.6600   -1.4658    0.0000 C   0  0  0  0  0  0  0  0  0  0  0  0
    5.1960   -2.7121    0.0000 C   0  0  0  0  0  0  0  0  0  0  0  0
    5.1960   -1.0620    0.0000 S   0  0  0  0  0  0  0  0  0  0  0  0
    5.9157   -2.2908    0.0000 C   0  0  0  0  0  0  0  0  0  0  0  0
    2.7296   -1.4307    0.0000 N   0  0  0  0  0  0  0  0  0  0  0  0
    5.1960   -3.5283    0.0000 C   0  0  0  0  0  0  0  0  0  0  0  0
    2.3171   -0.7197    0.0000 C   0  0  0  0  0  0  0  0  0  0  0  0
    1.4921   -0.7197    0.0000 C   0  0  0  0  0  0  0  0  0  0  0  0
    1.0796   -1.4307    0.0000 C   0  0  0  0  0  0  0  0  0  0  0  0
    5.9157   -1.4658    0.0000 C   0  0  0  0  0  0  0  0  0  0  0  0
    3.0807   -2.8701    0.0000 O   0  0  0  0  0  0  0  0  0  0  0  0
    1.3254   -2.2118    0.0000 S   0  0  0  0  0  0  0  0  0  0  0  0
    6.6267   -2.7121    0.0000 C   0  0  0  0  0  0  0  0  0  0  0  0
    8.0573   -2.7121    0.0000 C   0  0  0  0  0  0  0  0  0  0  0  0
    0.6758   -2.6945    0.0000 C   0  0  0  0  0  0  0  0  0  0  0  0
    5.9157   -3.9409    0.0000 O   0  0  0  0  0  0  0  0  0  0  0  0
    0.2457   -1.4307    0.0000 C   0  0  0  0  0  0  0  0  0  0  0  0
    2.7296    0.0000    0.0000 O   0  0  0  0  0  0  0  0  0  0  0  0
    7.3463   -2.2908    0.0000 O   0  0  0  0  0  0  0  0  0  0  0  0
    0.0000   -2.2118    0.0000 C   0  0  0  0  0  0  0  0  0  0  0  0
    8.0573   -3.5283    0.0000 O   0  0  0  0  0  0  0  0  0  0  0  0
    4.4851   -3.9409    0.0000 O   0  0  0  0  0  0  0  0  0  0  0  0
    8.7770   -2.2908    0.0000 C   0  0  0  0  0  0  0  0  0  0  0  0
  1  2  1  0
  1  3  1  0
  1  5  1  0
  2 14  2  0
  2  4  1  0
  3  4  1  0
  3  6  1  1
  4  8  1  1
  5  7  2  0
  5  9  1  0
  6 13  1  0
  7 13  1  0
  7 16  1  0
  8 10  1  0
  9 19  2  0
  9 25  1  0
 10 11  1  0
 10 21  2  0
 11 12  1  0
 12 15  1  0
 12 20  2  0
 15 18  1  0
 16 22  1  0
 17 22  1  0
 17 24  2  0
 17 26  1  0
 18 23  2  0
 20 23  1  0
M  END
>  <Formula>  (375) 
C16H16N2O6S2

>  <FW>  (375) 
396.4380

>  <DSSTox_CID>  (375) 
2783

>  <SR-HSE>  (375) 
1

$$$$
NCGC00188863-02
     RDKit          2D

 39 41  0  0  0  0  0  0  0  0999 V2000
    3.5453   -1.0389    0.0000 C   0  0  0  0  0  0  0  0  0  0  0  0
    3.5453   -1.8571    0.0000 C   0  0  0  0  0  0  0  0  0  0  0  0
    2.8571   -0.5974    0.0000 C   0  0  0  0  0  0  0  0  0  0  0  0
    2.8571   -2.2467    0.0000 C   0  0  0  0  0  0  0  0  0  0  0  0
    2.1557   -1.0389    0.0000 C   0  0  0  0  0  0  0  0  0  0  0  0
    2.1557   -1.8571    0.0000 C   0  0  0  0  0  0  0  0  0  0  0  0
    4.3375   -0.7792    0.0000 O   0  0  0  0  0  0  0  0  0  0  0  0
    4.8440   -1.4285    0.0000 C   0  0  0  0  0  0  0  0  0  0  0  0
    4.3375   -2.1168    0.0000 C   0  0  0  0  0  0  0  0  0  0  0  0
    5.6751   -1.4285    0.0000 C   0  0  0  0  0  0  0  0  0  0  0  0
    6.0517   -0.7273    0.0000 C   0  0  0  0  0  0  0  0  0  0  0  0
    6.8828   -0.7273    0.0000 C   0  0  0  0  0  0  0  0  0  0  0  0
    7.3114    0.0000    0.0000 C   0  0  0  0  0  0  0  0  0  0  0  0
    4.7530   -2.8571    0.0000 C   0  0  0  0  0  0  0  0  0  0  0  0
    4.3375   -3.5453    0.0000 O   0  0  0  0  0  0  0  0  0  0  0  0
    5.5842   -2.8571    0.0000 C   0  0  0  0  0  0  0  0  0  0  0  0
    5.9738   -2.1168    0.0000 C   0  0  0  0  0  0  0  0  0  0  0  0
    5.9738   -3.5453    0.0000 C   0  0  0  0  0  0  0  0  0  0  0  0
    6.8439   -2.1168    0.0000 C   0  0  0  0  0  0  0  0  0  0  0  0
    6.8439   -3.5453    0.0000 C   0  0  0  0  0  0  0  0  0  0  0  0
    7.2205   -2.8571    0.0000 C   0  0  0  0  0  0  0  0  0  0  0  0
    8.0517   -2.8571    0.0000 O   0  0  0  0  0  0  0  0  0  0  0  0
    8.4412   -2.1168    0.0000 C   0  0  0  0  0  0  0  0  0  0  0  0
    9.3113   -2.1168    0.0000 C   0  0  0  0  0  0  0  0  0  0  0  0
    9.7009   -1.4285    0.0000 C   0  0  0  0  0  0  0  0  0  0  0  0
   10.5190   -1.4285    0.0000 N   0  0  0  0  0  0  0  0  0  0  0  0
   10.9606   -0.6883    0.0000 C   0  0  0  0  0  0  0  0  0  0  0  0
   10.9606   -2.1168    0.0000 C   0  0  0  0  0  0  0  0  0  0  0  0
   11.7787   -0.6883    0.0000 C   0  0  0  0  0  0  0  0  0  0  0  0
   12.1684    0.0000    0.0000 C   0  0  0  0  0  0  0  0  0  0  0  0
   12.9865    0.0000    0.0000 C   0  0  0  0  0  0  0  0  0  0  0  0
   11.7787   -2.1168    0.0000 C   0  0  0  0  0  0  0  0  0  0  0  0
   12.1684   -2.8571    0.0000 C   0  0  0  0  0  0  0  0  0  0  0  0
   12.9865   -2.8571    0.0000 C   0  0  0  0  0  0  0  0  0  0  0  0
    1.4285   -2.2467    0.0000 N   0  0  0  0  0  0  0  0  0  0  0  0
    0.7273   -1.8571    0.0000 S   0  0  0  0  0  0  0  0  0  0  0  0
    0.2987   -2.5583    0.0000 O   0  0  0  0  0  0  0  0  0  0  0  0
    1.1168   -1.1168    0.0000 O   0  0  0  0  0  0  0  0  0  0  0  0
    0.0000   -1.4285    0.0000 C   0  0  0  0  0  0  0  0  0  0  0  0
  1  3  2  0
  1  7  1  0
  1  2  1  0
  2  4  2  0
  2  9  1  0
  3  5  1  0
  4  6  1  0
  5  6  2  0
  6 35  1  0
  7  8  1  0
  8  9  2  0
  8 10  1  0
  9 14  1  0
 10 11  1  0
 11 12  1  0
 12 13  1  0
 14 15  2  0
 14 16  1  0
 16 17  2  0
 16 18  1  0
 17 19  1  0
 18 20  2  0
 19 21  2  0
 20 21  1  0
 21 22  1  0
 22 23  1  0
 23 24  1  0
 24 25  1  0
 25 26  1  0
 26 27  1  0
 26 28  1  0
 27 29  1  0
 28 32  1  0
 29 30  1  0
 30 31  1  0
 32 33  1  0
 33 34  1  0
 35 36  1  0
 36 37  2  0
 36 38  2  0
 36 39  1  0
M  END
>  <Formula>  (376) 
C31H44N2O5S

>  <FW>  (376) 
556.7565

>  <DSSTox_CID>  (376) 
28579

>  <SR-ARE>  (376) 
0

>  <SR-HSE>  (376) 
1

$$$$
NCGC00263529-01
     RDKit          2D

 33 34  0  0  0  0  0  0  0  0999 V2000
    2.8589   -3.5607    0.0000 C   0  0  0  0  0  0  0  0  0  0  0  0
    2.8589   -4.3824    0.0000 C   0  0  0  0  0  0  0  0  0  0  0  0
    3.5778   -4.8018    0.0000 N   0  0  0  0  0  0  0  0  0  0  0  0
    4.2797   -4.3824    0.0000 C   0  0  0  0  0  0  0  0  0  0  0  0
    4.2797   -3.5607    0.0000 C   0  0  0  0  0  0  0  0  0  0  0  0
    3.5778   -3.1413    0.0000 C   0  0  0  0  0  0  0  0  0  0  0  0
    4.9816   -3.1413    0.0000 C   0  0  0  0  0  0  0  0  0  0  0  0
    5.7005   -3.5521    0.0000 O   0  0  0  0  0  0  0  0  0  0  0  0
    4.9816   -2.3282    0.0000 O   0  0  0  0  0  0  0  0  0  0  0  0
    6.4024   -3.1413    0.0000 C   0  0  0  0  0  0  0  0  0  0  0  0
    7.1214   -3.5521    0.0000 C   0  0  0  0  0  0  0  0  0  0  0  0
    4.9816   -4.8018    0.0000 C   0  0  0  0  0  0  0  0  0  0  0  0
    2.1484   -3.1413    0.0000 C   0  0  0  0  0  0  0  0  0  0  0  0
    1.4294   -3.5521    0.0000 O   0  0  0  0  0  0  0  0  0  0  0  0
    2.1484   -2.3367    0.0000 O   0  0  0  0  0  0  0  0  0  0  0  0
    0.7275   -3.1413    0.0000 C   0  0  0  0  0  0  0  0  0  0  0  0
    0.0000   -3.5521    0.0000 C   0  0  0  0  0  0  0  0  0  0  0  0
    2.1484   -4.8018    0.0000 C   0  0  0  0  0  0  0  0  0  0  0  0
    2.8503   -0.4109    0.0000 C   0  0  0  0  0  0  0  0  0  0  0  0
    2.8503   -1.2582    0.0000 C   0  0  0  0  0  0  0  0  0  0  0  0
    3.5778   -1.6862    0.0000 C   0  0  0  0  0  0  0  0  0  0  0  0
    4.2968   -1.2582    0.0000 C   0  0  0  0  0  0  0  0  0  0  0  0
    4.2968   -0.4109    0.0000 C   0  0  0  0  0  0  0  0  0  0  0  0
    3.5778    0.0000    0.0000 C   0  0  0  0  0  0  0  0  0  0  0  0
    4.9987   -1.6776    0.0000 C   0  0  0  0  0  0  0  0  0  0  0  0
    5.7091   -1.2582    0.0000 C   0  0  0  0  0  0  0  0  0  0  0  0
    6.4110   -1.6776    0.0000 C   0  0  0  0  0  0  0  0  0  0  0  0
    7.1300   -1.2496    0.0000 O   0  0  0  0  0  0  0  0  0  0  0  0
    6.4110   -2.4908    0.0000 O   0  0  0  0  0  0  0  0  0  0  0  0
    7.8404   -1.6605    0.0000 C   0  0  0  0  0  0  0  0  0  0  0  0
    7.4467   -2.3624    0.0000 C   0  0  0  0  0  0  0  0  0  0  0  0
    8.5594   -2.0628    0.0000 C   0  0  0  0  0  0  0  0  0  0  0  0
    8.2512   -0.9501    0.0000 C   0  0  0  0  0  0  0  0  0  0  0  0
  1  6  1  0
  1 13  1  0
  1  2  2  0
  2 18  1  0
  2  3  1  0
  3  4  1  0
  4  5  2  0
  4 12  1  0
  5  6  1  0
  5  7  1  0
  6 21  1  0
  7  8  1  0
  7  9  2  0
  8 10  1  0
 10 11  1  0
 13 14  1  0
 13 15  2  0
 14 16  1  0
 16 17  1  0
 19 20  2  0
 19 24  1  0
 20 21  1  0
 21 22  2  0
 22 23  1  0
 22 25  1  0
 23 24  2  0
 25 26  2  0
 26 27  1  0
 27 28  1  0
 27 29  2  0
 28 30  1  0
 30 31  1  0
 30 32  1  0
 30 33  1  0
M  END
>  <Formula>  (377) 
C26H33NO6

>  <FW>  (377) 
455.5433

>  <DSSTox_CID>  (377) 
26429

>  <SR-ARE>  (377) 
1

>  <SR-HSE>  (377) 
1

$$$$
NCGC00167507-04
     RDKit          2D

 40 44  0  0  0  0  0  0  0  0999 V2000
    1.0347   -1.2297    0.0000 C   0  0  0  0  0  0  0  0  0  0  0  0
    0.7798   -2.0094    0.0000 S   0  0  0  0  0  0  0  0  0  0  0  0
    0.5249   -2.7893    0.0000 O   0  0  0  0  0  0  0  0  0  0  0  0
    0.0000   -1.7395    0.0000 O   0  0  0  0  0  0  0  0  0  0  0  0
    1.5746   -2.2494    0.0000 C   0  0  0  0  0  0  0  0  0  0  0  0
    2.1744   -1.7095    0.0000 C   0  0  0  0  0  0  0  0  0  0  0  0
    2.9692   -1.9645    0.0000 N   0  0  0  0  0  0  0  0  0  0  0  0
    3.5840   -1.4096    0.0000 C   0  0  0  0  0  0  0  0  0  0  0  0
    4.3638   -1.6495    0.0000 C   0  0  0  0  0  0  0  0  0  0  0  0
    4.6337   -2.4443    0.0000 C   0  0  0  0  0  0  0  0  0  0  0  0
    5.4586   -2.4443    0.0000 C   0  0  0  0  0  0  0  0  0  0  0  0
    5.6985   -1.6495    0.0000 C   0  0  0  0  0  0  0  0  0  0  0  0
    5.0387   -1.1697    0.0000 O   0  0  0  0  0  0  0  0  0  0  0  0
    6.4183   -1.2447    0.0000 C   0  0  0  0  0  0  0  0  0  0  0  0
    7.1381   -1.6495    0.0000 C   0  0  0  0  0  0  0  0  0  0  0  0
    7.8429   -1.2447    0.0000 C   0  0  0  0  0  0  0  0  0  0  0  0
    8.5627   -1.6495    0.0000 C   0  0  0  0  0  0  0  0  0  0  0  0
    8.5627   -2.4893    0.0000 N   0  0  0  0  0  0  0  0  0  0  0  0
    9.2675   -2.8942    0.0000 C   0  0  0  0  0  0  0  0  0  0  0  0
    9.9873   -2.4893    0.0000 C   0  0  0  0  0  0  0  0  0  0  0  0
   10.7072   -2.8942    0.0000 C   0  0  0  0  0  0  0  0  0  0  0  0
   10.7072   -3.7190    0.0000 C   0  0  0  0  0  0  0  0  0  0  0  0
   11.4269   -4.1239    0.0000 O   0  0  0  0  0  0  0  0  0  0  0  0
   12.1317   -3.7190    0.0000 C   0  0  0  0  0  0  0  0  0  0  0  0
   12.8516   -4.1239    0.0000 C   0  0  0  0  0  0  0  0  0  0  0  0
   13.5564   -3.7190    0.0000 C   0  0  0  0  0  0  0  0  0  0  0  0
   14.2762   -4.1239    0.0000 C   0  0  0  0  0  0  0  0  0  0  0  0
   14.2762   -4.9487    0.0000 C   0  0  0  0  0  0  0  0  0  0  0  0
   13.5564   -5.3686    0.0000 C   0  0  0  0  0  0  0  0  0  0  0  0
   12.8516   -4.9487    0.0000 C   0  0  0  0  0  0  0  0  0  0  0  0
   14.9960   -3.7190    0.0000 F   0  0  0  0  0  0  0  0  0  0  0  0
    9.9873   -4.1239    0.0000 C   0  0  0  0  0  0  0  0  0  0  0  0
    9.2675   -3.7190    0.0000 C   0  0  0  0  0  0  0  0  0  0  0  0
    9.9873   -4.9487    0.0000 Cl  0  0  0  0  0  0  0  0  0  0  0  0
    9.2675   -1.2447    0.0000 N   0  0  0  0  0  0  0  0  0  0  0  0
    9.2675   -0.4199    0.0000 C   0  0  0  0  0  0  0  0  0  0  0  0
    8.5627    0.0000    0.0000 N   0  0  0  0  0  0  0  0  0  0  0  0
    7.8429   -0.4199    0.0000 C   0  0  0  0  0  0  0  0  0  0  0  0
    7.1381    0.0000    0.0000 C   0  0  0  0  0  0  0  0  0  0  0  0
    6.4183   -0.4199    0.0000 C   0  0  0  0  0  0  0  0  0  0  0  0
  1  2  1  0
  2  3  2  0
  2  4  2  0
  2  5  1  0
  5  6  1  0
  6  7  1  0
  7  8  1  0
  8  9  1  0
  9 10  2  0
  9 13  1  0
 10 11  1  0
 11 12  2  0
 12 13  1  0
 12 14  1  0
 14 15  2  0
 14 40  1  0
 15 16  1  0
 16 17  2  0
 16 38  1  0
 17 18  1  0
 17 35  1  0
 18 19  1  0
 19 20  2  0
 19 33  1  0
 20 21  1  0
 21 22  2  0
 22 23  1  0
 22 32  1  0
 23 24  1  0
 24 25  1  0
 25 26  2  0
 25 30  1  0
 26 27  1  0
 27 28  2  0
 27 31  1  0
 28 29  1  0
 29 30  2  0
 32 33  2  0
 32 34  1  0
 35 36  2  0
 36 37  1  0
 37 38  2  0
 38 39  1  0
 39 40  2  0
M  END
>  <Formula>  (378) 
C29H26ClFN4O4S

>  <FW>  (378) 
581.0575

>  <DSSTox_CID>  (378) 
26675

>  <SR-ARE>  (378) 
1

>  <SR-HSE>  (378) 
1

$$$$
NCGC00159337-04
     RDKit          2D

 21 23  0  0  1  0  0  0  0  0999 V2000
    0.7161   -0.4181    0.0000 C   0  0  0  0  0  0  0  0  0  0  0  0
    0.7161   -1.2542    0.0000 C   0  0  0  0  0  0  0  0  0  0  0  0
    1.4321   -1.6483    0.0000 C   0  0  0  0  0  0  0  0  0  0  0  0
    1.4321    0.0000    0.0000 C   0  0  0  0  0  0  0  0  0  0  0  0
    2.1433   -0.4181    0.0000 C   0  0  0  0  0  0  0  0  0  0  0  0
    2.1433   -1.2542    0.0000 C   0  0  0  0  0  0  0  0  0  0  0  0
    2.8593   -1.6483    0.0000 C   0  0  0  0  0  0  0  0  0  0  0  0
    3.5753   -1.2542    0.0000 O   0  0  0  0  0  0  0  0  0  0  0  0
    3.5753   -0.4181    0.0000 C   0  0  0  0  0  0  0  0  0  0  0  0
    2.8593    0.0000    0.0000 N   0  0  0  0  0  0  0  0  0  0  0  0
    4.2914    0.0000    0.0000 O   0  0  0  0  0  0  0  0  0  0  0  0
    0.0000   -1.6483    0.0000 Cl  0  0  0  0  0  0  0  0  0  0  0  0
    3.2678   -2.3739    0.0000 C   0  0  0  0  0  0  0  0  0  0  0  0
    3.6859   -3.0900    0.0000 C   0  0  0  0  0  0  0  0  0  0  0  0
    4.0992   -3.8060    0.0000 C   0  0  0  0  0  0  0  0  0  0  0  0
    4.8056   -4.2097    0.0000 C   0  0  0  0  0  0  0  0  0  0  0  0
    4.0992   -4.6278    0.0000 C   0  0  0  0  0  0  0  0  0  0  0  0
    2.4412   -2.3739    0.0000 C   0  0  0  0  0  0  0  0  0  0  0  0
    3.1572   -2.7824    0.0000 F   0  0  0  0  0  0  0  0  0  0  0  0
    2.0376   -3.0900    0.0000 F   0  0  0  0  0  0  0  0  0  0  0  0
    1.7396   -1.9559    0.0000 F   0  0  0  0  0  0  0  0  0  0  0  0
  1  2  2  0
  1  4  1  0
  2 12  1  0
  2  3  1  0
  3  6  2  0
  4  5  2  0
  5 10  1  0
  5  6  1  0
  6  7  1  0
  7 13  1  1
  7 18  1  0
  7  8  1  0
  8  9  1  0
  9 10  1  0
  9 11  2  0
 13 14  3  0
 14 15  1  0
 15 16  1  0
 15 17  1  0
 16 17  1  0
 18 19  1  0
 18 20  1  0
 18 21  1  0
M  END
>  <Formula>  (379) 
C14H9ClF3NO2

>  <FW>  (379) 
315.6750

>  <DSSTox_CID>  (379) 
26029

>  <SR-ARE>  (379) 
1

>  <SR-HSE>  (379) 
1

$$$$
NCGC00344583-01
     RDKit          2D

 64 71  0  0  1  0  0  0  0  0999 V2000
    3.6182   -1.7507    0.0000 C   0  0  0  0  0  0  0  0  0  0  0  0
    2.8829   -1.3539    0.0000 C   0  0  0  0  0  0  0  0  0  0  0  0
    2.8829   -0.5019    0.0000 C   0  0  0  0  0  0  0  0  0  0  0  0
    4.3185   -1.3539    0.0000 C   0  0  0  0  0  0  0  0  0  0  0  0
    3.5832   -0.1051    0.0000 C   0  0  0  0  0  0  0  0  0  0  0  0
    4.3185   -0.5019    0.0000 C   0  0  0  0  0  0  0  0  0  0  0  0
    4.9488   -1.8558    0.0000 C   0  0  0  0  0  0  0  0  0  0  0  0
    5.7541   -1.6691    0.0000 C   0  0  0  0  0  0  0  0  0  0  0  0
    4.9721    0.0000    0.0000 N   0  0  0  0  0  0  0  0  0  0  0  0
    5.7541   -0.1868    0.0000 C   0  0  0  0  0  0  0  0  0  0  0  0
    6.1160   -0.9220    0.0000 C   0  0  0  0  0  0  0  0  0  0  0  0
    5.2173   -0.8871    0.0000 C   0  0  0  0  0  0  0  0  0  0  0  0
    2.1359   -1.7507    0.0000 N   0  0  0  0  0  0  0  0  0  0  0  0
    1.4356   -0.5019    0.0000 C   0  0  0  0  0  0  0  0  0  0  0  0
    1.4356   -1.3539    0.0000 C   0  0  0  0  0  0  0  0  0  0  0  0
    0.7003   -0.1051    0.0000 C   0  0  0  0  0  0  0  0  0  0  0  0
    0.7003   -1.7507    0.0000 C   0  0  0  0  0  0  0  0  0  0  0  0
    0.0000   -0.5019    0.0000 C   0  0  0  0  0  0  0  0  0  0  0  0
    0.0000   -1.3539    0.0000 C   0  0  0  0  0  0  0  0  0  0  0  0
    6.8396   -0.5369    0.0000 O   0  0  0  0  0  0  0  0  0  0  0  0
    6.8046   -1.3539    0.0000 C   0  0  0  0  0  0  0  0  0  0  0  0
    7.5516   -1.0037    0.0000 C   0  0  0  0  0  0  0  0  0  0  0  0
    7.8200   -3.0930    0.0000 C   0  0  0  0  0  0  0  0  0  0  0  0
    8.5203   -4.3419    0.0000 C   0  0  0  0  0  0  0  0  0  0  0  0
    7.8200   -3.9100    0.0000 C   0  0  0  0  0  0  0  0  0  0  0  0
    9.2206   -3.0930    0.0000 C   0  0  0  0  0  0  0  0  0  0  0  0
    7.0847   -4.2952    0.0000 N   0  0  0  0  0  0  0  0  0  0  0  0
    8.5203   -2.6728    0.0000 C   0  0  0  0  0  0  0  0  0  0  0  0
    6.3844   -3.9100    0.0000 C   0  0  0  0  0  0  0  0  0  0  0  0
    9.2206   -3.9100    0.0000 C   0  0  0  0  0  0  0  0  0  0  0  0
    6.3844   -3.0930    0.0000 C   0  0  0  0  0  0  0  0  0  0  0  0
    4.9488   -3.0930    0.0000 C   0  0  0  0  0  0  0  0  0  0  0  0
    5.6374   -4.2952    0.0000 C   0  0  0  0  0  0  0  0  0  0  0  0
    5.6374   -2.6728    0.0000 C   0  0  0  0  0  0  0  0  0  0  0  0
    8.5203   -1.8558    0.0000 N   0  0  0  0  0  0  0  0  0  0  0  0
    3.4198   -2.4394    0.0000 C   0  0  0  0  0  0  0  0  0  0  0  0
    8.8355   -4.8788    0.0000 C   0  0  0  0  0  0  0  0  0  0  0  0
    4.9488   -3.9100    0.0000 C   0  0  0  0  0  0  0  0  0  0  0  0
    7.0847   -2.6728    0.0000 C   0  0  0  0  0  0  0  0  0  0  0  0
   10.1543   -4.7387    0.0000 O   0  0  0  0  0  0  0  0  0  0  0  0
    9.9560   -2.6728    0.0000 C   0  0  0  0  0  0  0  0  0  0  0  0
   11.1698   -4.7387    0.0000 C   0  0  0  0  0  0  0  0  0  0  0  0
    7.0847   -1.8558    0.0000 C   0  0  0  0  0  0  0  0  0  0  0  0
    8.2869   -5.1238    0.0000 O   0  0  0  0  0  0  0  0  0  0  0  0
    9.9560   -1.8558    0.0000 C   0  0  0  0  0  0  0  0  0  0  0  0
    9.6992   -4.8788    0.0000 O   0  0  0  0  0  0  0  0  0  0  0  0
    2.6378   -2.6728    0.0000 O   0  0  0  0  0  0  0  0  0  0  0  0
   11.6717   -3.8400    0.0000 O   0  0  0  0  0  0  0  0  0  0  0  0
    9.9560   -3.5715    0.0000 C   0  0  0  0  0  0  0  0  0  0  0  0
    7.0380   -5.1589    0.0000 C   0  0  0  0  0  0  0  0  0  0  0  0
    9.2206   -1.4356    0.0000 C   0  0  0  0  0  0  0  0  0  0  0  0
    8.8355   -5.6258    0.0000 O   0  0  0  0  0  0  0  0  0  0  0  0
    3.9684   -2.9529    0.0000 O   0  0  0  0  0  0  0  0  0  0  0  0
    4.2018   -4.2952    0.0000 O   0  0  0  0  0  0  0  0  0  0  0  0
   11.5900   -5.5090    0.0000 C   0  0  0  0  0  0  0  0  0  0  0  0
    3.5365   -3.6766    0.0000 C   0  0  0  0  0  0  0  0  0  0  0  0
    9.5708   -6.0109    0.0000 C   0  0  0  0  0  0  0  0  0  0  0  0
    4.2018   -5.1589    0.0000 C   0  0  0  0  0  0  0  0  0  0  0  0
   10.7029   -3.2097    0.0000 C   0  0  0  0  0  0  0  0  0  0  0  0
    1.5290   -4.0384    0.0000 S   0  0  0  0  0  0  0  0  0  0  0  0
    2.3577   -4.0384    0.0000 O   0  0  0  0  0  0  0  0  0  0  0  0
    0.7120   -4.0384    0.0000 O   0  0  0  0  0  0  0  0  0  0  0  0
    1.5290   -4.8671    0.0000 O   0  0  0  0  0  0  0  0  0  0  0  0
    1.5290   -3.2214    0.0000 O   0  0  0  0  0  0  0  0  0  0  0  0
  1  2  1  0
  1  4  1  0
  1 32  1  0
  1 36  1  1
  2  3  2  0
  2 13  1  0
  3  5  1  0
  3 14  1  0
  7  4  1  1
  5  6  1  0
  9  6  1  1
  7  8  1  0
  7 12  1  0
  8 11  1  0
  9 10  1  0
  9 12  1  0
 10 11  1  0
 11 20  1  1
 11 21  1  0
 13 15  1  0
 14 16  2  0
 14 15  1  0
 15 17  2  0
 16 18  1  0
 17 19  1  0
 18 19  2  0
 21 22  1  0
 23 25  1  0
 23 28  1  0
 23 39  1  1
 23 31  1  0
 24 25  1  0
 24 37  1  0
 24 44  1  1
 24 30  1  0
 25 27  1  6
 26 28  1  0
 26 30  1  0
 26 41  1  0
 26 49  1  6
 27 29  1  0
 27 50  1  0
 28 35  1  1
 29 33  1  0
 29 31  2  0
 30 40  1  1
 31 34  1  0
 32 34  2  0
 32 38  1  0
 33 38  2  0
 35 51  1  0
 35 43  1  0
 36 47  2  0
 36 53  1  0
 37 46  2  0
 37 52  1  0
 38 54  1  0
 39 43  1  0
 40 42  1  0
 41 45  2  0
 42 48  2  0
 42 55  1  0
 45 51  1  0
 49 59  1  0
 52 57  1  0
 53 56  1  0
 54 58  1  0
 60 61  2  0
 60 62  2  0
 60 63  1  0
 60 64  1  0
M  END
>  <Formula>  (380) 
C46H60N4O13S

>  <FW>  (380) 
909.0526 (810.9741+98.0785)

>  <DSSTox_CID>  (380) 
27831

>  <SR-ARE>  (380) 
1

>  <SR-HSE>  (380) 
1

$$$$
NCGC00091057-05
     RDKit          2D

 35 39  0  0  1  0  0  0  0  0999 V2000
    2.1502   -3.3003    0.0000 C   0  0  0  0  0  0  0  0  0  0  0  0
    2.8602   -3.7203    0.0000 C   0  0  0  0  0  0  0  0  0  0  0  0
    2.8602   -2.0702    0.0000 O   0  0  0  0  0  0  0  0  0  0  0  0
    2.1502   -2.4802    0.0000 C   0  0  0  0  0  0  0  0  0  0  0  0
    3.5703   -3.3003    0.0000 C   0  0  0  0  0  0  0  0  0  0  0  0
    3.5703   -2.4802    0.0000 C   0  0  0  0  0  0  0  0  0  0  0  0
    6.4206   -2.4802    0.0000 O   0  0  0  0  0  0  0  0  0  0  0  0
    1.4302   -3.7203    0.0000 C   0  0  0  0  0  0  0  0  0  0  0  0
    7.1407   -2.0702    0.0000 C   0  0  0  0  0  0  0  0  0  0  0  0
    6.4206   -0.8301    0.0000 O   0  0  0  0  0  0  0  0  0  0  0  0
    5.7105   -2.0702    0.0000 C   0  0  0  0  0  0  0  0  0  0  0  0
    7.1407   -1.2401    0.0000 C   0  0  0  0  0  0  0  0  0  0  0  0
    4.2904   -2.0702    0.0000 C   0  0  0  0  0  0  0  0  0  0  0  0
    7.8507   -2.4802    0.0000 C   0  0  0  0  0  0  0  0  0  0  0  0
    5.7105   -1.2401    0.0000 C   0  0  0  0  0  0  0  0  0  0  0  0
    1.4302   -2.0702    0.0000 C   0  0  0  0  0  0  0  0  0  0  0  0
    4.9905   -2.4802    0.0000 C   0  0  0  0  0  0  0  0  0  0  0  0
    0.7200   -3.3003    0.0000 C   0  0  0  0  0  0  0  0  0  0  0  0
    7.8507   -3.3003    0.0000 C   0  0  0  0  0  0  0  0  0  0  0  0
    8.5707   -3.7203    0.0000 C   0  0  0  0  0  0  0  0  0  0  0  0
    2.8602   -4.5404    0.0000 O   0  0  0  0  0  0  0  0  0  0  0  0
    0.7200   -2.4802    0.0000 C   0  0  0  0  0  0  0  0  0  0  0  0
    9.2808   -3.3003    0.0000 C   0  0  0  0  0  0  0  0  0  0  0  0
    4.2904   -1.2401    0.0000 C   0  0  0  0  0  0  0  0  0  0  0  0
    8.5707   -2.0702    0.0000 C   0  0  0  0  0  0  0  0  0  0  0  0
    4.9905   -0.8301    0.0000 C   0  0  0  0  0  0  0  0  0  0  0  0
    9.2808   -2.4802    0.0000 C   0  0  0  0  0  0  0  0  0  0  0  0
    4.2904   -3.7203    0.0000 O   0  0  0  0  0  0  0  0  0  0  0  0
    1.4302   -4.5404    0.0000 O   0  0  0  0  0  0  0  0  0  0  0  0
    8.5707   -4.5404    0.0000 O   0  0  0  0  0  0  0  0  0  0  0  0
    7.8507   -0.8301    0.0000 C   0  0  0  0  0  0  0  0  0  0  0  0
   10.0009   -3.7203    0.0000 O   0  0  0  0  0  0  0  0  0  0  0  0
    0.0000   -2.0702    0.0000 O   0  0  0  0  0  0  0  0  0  0  0  0
    7.8507    0.0000    0.0000 O   0  0  0  0  0  0  0  0  0  0  0  0
    7.8507   -4.9504    0.0000 C   0  0  0  0  0  0  0  0  0  0  0  0
  1  2  1  0
  1  4  2  0
  1  8  1  0
  2  5  1  0
  2 21  2  0
  3  4  1  0
  6  3  1  6
  4 16  1  0
  5 28  1  1
  5  6  1  0
  6 13  1  0
  7 11  1  0
  9  7  1  1
  8 18  2  0
  8 29  1  0
  9 14  1  0
  9 12  1  0
 10 15  1  0
 10 12  1  0
 11 17  1  0
 11 15  2  0
 12 31  1  6
 13 17  2  0
 13 24  1  0
 14 19  2  0
 14 25  1  0
 15 26  1  0
 16 22  2  0
 18 22  1  0
 19 20  1  0
 20 30  1  0
 20 23  2  0
 22 33  1  0
 23 27  1  0
 23 32  1  0
 24 26  2  0
 25 27  2  0
 30 35  1  0
 31 34  1  0
M  END
>  <Formula>  (381) 
C25H22O10

>  <FW>  (381) 
482.4362

>  <DSSTox_CID>  (381) 
6018

>  <SR-ARE>  (381) 
0

>  <SR-HSE>  (381) 
1

$$$$
NCGC00262959-01
     RDKit          2D

 35 40  0  0  0  0  0  0  0  0999 V2000
    0.0000   -2.1447    0.0000 S   0  0  0  0  0  0  0  0  0  0  0  0
    0.4168   -1.4327    0.0000 C   0  0  0  0  0  0  0  0  0  0  0  0
    1.2417   -1.4327    0.0000 C   0  0  0  0  0  0  0  0  0  0  0  0
    1.6498   -2.1447    0.0000 C   0  0  0  0  0  0  0  0  0  0  0  0
    1.2417   -2.8654    0.0000 C   0  0  0  0  0  0  0  0  0  0  0  0
    0.4168   -2.8654    0.0000 C   0  0  0  0  0  0  0  0  0  0  0  0
    0.0000   -0.7120    0.0000 C   0  0  0  0  0  0  0  0  0  0  0  0
    0.4168    0.0000    0.0000 C   0  0  0  0  0  0  0  0  0  0  0  0
    1.2417    0.0000    0.0000 C   0  0  0  0  0  0  0  0  0  0  0  0
    1.6498   -0.7120    0.0000 C   0  0  0  0  0  0  0  0  0  0  0  0
    0.0000   -3.5687    0.0000 O   0  0  0  0  0  0  0  0  0  0  0  0
    1.2417   -4.2895    0.0000 C   0  0  0  0  0  0  0  0  0  0  0  0
    1.6498   -5.0014    0.0000 C   0  0  0  0  0  0  0  0  0  0  0  0
    0.4168   -4.2895    0.0000 C   0  0  0  0  0  0  0  0  0  0  0  0
    1.2417   -5.7222    0.0000 C   0  0  0  0  0  0  0  0  0  0  0  0
    2.4833   -5.0014    0.0000 C   0  0  0  0  0  0  0  0  0  0  0  0
    1.6498   -3.5687    0.0000 C   0  0  0  0  0  0  0  0  0  0  0  0
    2.4833   -3.5687    0.0000 C   0  0  0  0  0  0  0  0  0  0  0  0
    2.9002   -4.2895    0.0000 C   0  0  0  0  0  0  0  0  0  0  0  0
    0.4168   -5.7222    0.0000 C   0  0  0  0  0  0  0  0  0  0  0  0
    0.0000   -5.0014    0.0000 C   0  0  0  0  0  0  0  0  0  0  0  0
    5.3749   -4.2895    0.0000 C   0  0  0  0  0  0  0  0  0  0  0  0
    4.9581   -5.0014    0.0000 C   0  0  0  0  0  0  0  0  0  0  0  0
    4.9581   -3.5687    0.0000 C   0  0  0  0  0  0  0  0  0  0  0  0
    4.1332   -5.0014    0.0000 C   0  0  0  0  0  0  0  0  0  0  0  0
    4.1332   -3.5687    0.0000 C   0  0  0  0  0  0  0  0  0  0  0  0
    3.7251   -4.2895    0.0000 C   0  0  0  0  0  0  0  0  0  0  0  0
    6.1998   -4.2895    0.0000 C   0  0  0  0  0  0  0  0  0  0  0  0
    6.6079   -3.5687    0.0000 C   0  0  0  0  0  0  0  0  0  0  0  0
    6.6079   -5.0014    0.0000 C   0  0  0  0  0  0  0  0  0  0  0  0
    7.4414   -3.5687    0.0000 C   0  0  0  0  0  0  0  0  0  0  0  0
    7.4414   -5.0014    0.0000 C   0  0  0  0  0  0  0  0  0  0  0  0
    7.8582   -4.2895    0.0000 C   0  0  0  0  0  0  0  0  0  0  0  0
    8.6831   -4.2895    0.0000 Br  0  0  0  0  0  0  0  0  0  0  0  0
    2.4833   -2.1447    0.0000 O   0  0  0  0  0  0  0  0  0  0  0  0
  1  2  1  0
  1  6  1  0
  2  3  2  0
  2  7  1  0
  3  4  1  0
  3 10  1  0
  4  5  2  0
  4 35  1  0
  5  6  1  0
  5 17  1  0
  6 11  2  0
  7  8  2  0
  8  9  1  0
  9 10  2  0
 12 13  1  0
 12 14  2  0
 12 17  1  0
 13 15  2  0
 13 16  1  0
 14 21  1  0
 15 20  1  0
 16 19  1  0
 17 18  1  0
 18 19  1  0
 19 27  1  0
 20 21  2  0
 22 28  1  0
 22 23  2  0
 22 24  1  0
 23 25  1  0
 24 26  2  0
 25 27  2  0
 26 27  1  0
 28 29  2  0
 28 30  1  0
 29 31  1  0
 30 32  2  0
 31 33  2  0
 32 33  1  0
 33 34  1  0
M  END
>  <Formula>  (382) 
C31H23BrO2S

>  <FW>  (382) 
539.4821

>  <DSSTox_CID>  (382) 
12374

>  <SR-ARE>  (382) 
1

>  <SR-HSE>  (382) 
1

$$$$
NCGC00254847-01
     RDKit          2D

 39 43  0  0  1  0  0  0  0  0999 V2000
    2.1338   -1.2489    0.0000 C   0  0  0  0  0  0  0  0  0  0  0  0
    1.4202   -0.8207    0.0000 C   0  0  0  0  0  0  0  0  0  0  0  0
    1.4202   -2.4835    0.0000 C   0  0  0  0  0  0  0  0  0  0  0  0
    0.7137   -1.2489    0.0000 C   0  0  0  0  0  0  0  0  0  0  0  0
    0.7137   -2.0553    0.0000 C   0  0  0  0  0  0  0  0  0  0  0  0
    2.8475   -0.8207    0.0000 C   0  0  0  0  0  0  0  0  0  0  0  0
    3.5612   -1.2489    0.0000 C   0  0  0  0  0  0  0  0  0  0  0  0
    3.5612   -2.0696    0.0000 C   0  0  0  0  0  0  0  0  0  0  0  0
    4.2819   -0.8207    0.0000 O   0  0  0  0  0  0  0  0  0  0  0  0
    4.9885   -1.2489    0.0000 C   0  0  0  0  0  0  0  0  0  0  0  0
    4.2819   -2.4835    0.0000 C   0  0  0  0  0  0  0  0  0  0  0  0
    4.9885   -2.0696    0.0000 C   0  0  0  0  0  0  0  0  0  0  0  0
    6.4158   -0.4282    0.0000 C   0  0  0  0  0  0  0  0  0  0  0  0
    6.4158   -1.2489    0.0000 C   0  0  0  0  0  0  0  0  0  0  0  0
    5.7021    0.0000    0.0000 C   0  0  0  0  0  0  0  0  0  0  0  0
    5.7021   -1.6414    0.0000 O   0  0  0  0  0  0  0  0  0  0  0  0
    4.9885   -0.4282    0.0000 C   0  0  0  0  0  0  0  0  0  0  0  0
    7.1366   -1.6414    0.0000 C   0  0  0  0  0  0  0  0  0  0  0  0
    2.8475   -3.3042    0.0000 O   0  0  0  0  0  0  0  0  0  0  0  0
    4.2819   -3.3042    0.0000 O   0  0  0  0  0  0  0  0  0  0  0  0
    3.5612   -3.6968    0.0000 C   0  0  0  0  0  0  0  0  0  0  0  0
    2.1481   -3.6968    0.0000 C   0  0  0  0  0  0  0  0  0  0  0  0
    2.1481   -4.5175    0.0000 C   0  0  0  0  0  0  0  0  0  0  0  0
    3.5612   -4.5175    0.0000 C   0  0  0  0  0  0  0  0  0  0  0  0
    2.8475   -4.9457    0.0000 C   0  0  0  0  0  0  0  0  0  0  0  0
    1.4202   -3.3042    0.0000 C   0  0  0  0  0  0  0  0  0  0  0  0
    1.4202   -4.9457    0.0000 C   0  0  0  0  0  0  0  0  0  0  0  0
    1.4202   -5.7664    0.0000 O   0  0  0  0  0  0  0  0  0  0  0  0
    2.8475   -5.7664    0.0000 C   0  0  0  0  0  0  0  0  0  0  0  0
    4.2819   -4.9457    0.0000 C   0  0  0  0  0  0  0  0  0  0  0  0
    4.2819   -5.7664    0.0000 C   0  0  0  0  0  0  0  0  0  0  0  0
    3.5612   -6.1803    0.0000 C   0  0  0  0  0  0  0  0  0  0  0  0
    1.4202    0.0000    0.0000 C   0  0  0  0  0  0  0  0  0  0  0  0
    0.0000   -2.4835    0.0000 C   0  0  0  0  0  0  0  0  0  0  0  0
    2.8475   -4.1249    0.0000 O   0  0  0  0  0  0  0  0  0  0  0  0
    4.9885   -6.1803    0.0000 C   0  0  0  0  0  0  0  0  0  0  0  0
    3.5612   -7.0010    0.0000 O   0  0  0  0  0  0  0  0  0  0  0  0
    7.1366    0.0000    0.0000 C   0  0  0  0  0  0  0  0  0  0  0  0
    7.1366   -2.4835    0.0000 C   0  0  0  0  0  0  0  0  0  0  0  0
  1  2  2  0
  1  6  1  0
  2  4  1  0
  2 33  1  0
  3  5  1  0
  3 26  2  0
  4  5  1  0
  5 34  1  6
  7  6  1  1
  7  9  1  0
  7  8  1  0
  8 11  1  0
  9 10  1  0
 10 12  1  1
 10 16  1  0
 10 17  1  0
 11 12  1  1
 11 20  1  0
 13 14  1  0
 13 15  1  0
 13 38  1  6
 14 18  1  1
 14 16  1  0
 15 17  1  0
 18 39  1  0
 19 21  2  0
 20 21  1  0
 21 24  1  0
 22 23  2  0
 22 26  1  0
 23 27  1  0
 23 25  1  0
 24 30  1  6
 24 25  1  0
 25 29  1  0
 25 35  1  6
 27 28  1  0
 29 28  1  1
 29 32  1  0
 30 31  2  0
 31 32  1  0
 31 36  1  0
 32 37  1  1
M  END
>  <Formula>  (383) 
C32H46O7

>  <FW>  (383) 
542.7034

>  <DSSTox_CID>  (383) 
14742

>  <NR-AR>  (383) 
0

>  <NR-AhR>  (383) 
0

>  <SR-HSE>  (383) 
1

$$$$
NCGC00253950-01
     RDKit          2D

 49 52  0  0  0  0  0  0  0  0999 V2000
    2.1412   -2.5550    0.0000 C   0  0  0  0  0  0  0  0  0  0  0  0
    2.1412   -3.3825    0.0000 C   0  0  0  0  0  0  0  0  0  0  0  0
    1.4275   -2.1309    0.0000 C   0  0  0  0  0  0  0  0  0  0  0  0
    1.4275   -3.7859    0.0000 C   0  0  0  0  0  0  0  0  0  0  0  0
    0.7137   -2.5550    0.0000 C   0  0  0  0  0  0  0  0  0  0  0  0
    0.7137   -3.3825    0.0000 C   0  0  0  0  0  0  0  0  0  0  0  0
    2.9274   -2.2964    0.0000 N   0  0  0  0  0  0  0  0  0  0  0  0
    3.4135   -2.9584    0.0000 C   0  0  0  0  0  0  0  0  0  0  0  0
    2.9274   -3.6411    0.0000 C   0  0  0  0  0  0  0  0  0  0  0  0
    0.0000   -3.7859    0.0000 C   0  0  0  0  0  0  0  0  0  0  0  0
    1.4275   -1.3137    0.0000 C   0  0  0  0  0  0  0  0  0  0  0  0
    3.1859   -1.5102    0.0000 C   0  0  0  0  0  0  0  0  0  0  0  0
    3.9928   -1.3447    0.0000 C   0  0  0  0  0  0  0  0  0  0  0  0
    4.2514   -0.5586    0.0000 O   0  0  0  0  0  0  0  0  0  0  0  0
    4.5410   -1.9550    0.0000 O   0  0  0  0  0  0  0  0  0  0  0  0
    4.2410   -2.9584    0.0000 C   0  0  0  0  0  0  0  0  0  0  0  0
    4.6548   -3.6721    0.0000 N   0  0  0  0  0  0  0  0  0  0  0  0
    5.4720   -3.6721    0.0000 C   0  0  0  0  0  0  0  0  0  0  0  0
    5.9064   -2.9791    0.0000 S   0  0  0  0  0  0  0  0  0  0  0  0
    6.0099   -4.2928    0.0000 N   0  0  0  0  0  0  0  0  0  0  0  0
    6.6925   -3.1446    0.0000 C   0  0  0  0  0  0  0  0  0  0  0  0
    6.7753   -3.9721    0.0000 C   0  0  0  0  0  0  0  0  0  0  0  0
    7.4684   -4.4066    0.0000 C   0  0  0  0  0  0  0  0  0  0  0  0
    8.9166   -4.4066    0.0000 C   0  0  0  0  0  0  0  0  0  0  0  0
    8.9166   -5.2237    0.0000 C   0  0  0  0  0  0  0  0  0  0  0  0
    8.2028   -3.9928    0.0000 C   0  0  0  0  0  0  0  0  0  0  0  0
    8.2028   -5.6375    0.0000 C   0  0  0  0  0  0  0  0  0  0  0  0
    7.4684   -5.2237    0.0000 C   0  0  0  0  0  0  0  0  0  0  0  0
    7.3236   -2.6171    0.0000 C   0  0  0  0  0  0  0  0  0  0  0  0
    7.1684   -1.7998    0.0000 C   0  0  0  0  0  0  0  0  0  0  0  0
    7.7890   -1.2620    0.0000 C   0  0  0  0  0  0  0  0  0  0  0  0
    9.2062   -1.2103    0.0000 C   0  0  0  0  0  0  0  0  0  0  0  0
    8.5234   -1.6447    0.0000 C   0  0  0  0  0  0  0  0  0  0  0  0
    9.1855   -0.3724    0.0000 C   0  0  0  0  0  0  0  0  0  0  0  0
    8.4510    0.0000    0.0000 C   0  0  0  0  0  0  0  0  0  0  0  0
    7.7580   -0.4448    0.0000 C   0  0  0  0  0  0  0  0  0  0  0  0
    6.7650   -5.6375    0.0000 O   0  0  0  0  0  0  0  0  0  0  0  0
    6.0512   -5.2237    0.0000 C   0  0  0  0  0  0  0  0  0  0  0  0
    9.6303   -5.6375    0.0000 Cl  0  0  0  0  0  0  0  0  0  0  0  0
    9.6303   -3.9928    0.0000 O   0  0  0  0  0  0  0  0  0  0  0  0
   10.3440   -4.4066    0.0000 C   0  0  0  0  0  0  0  0  0  0  0  0
    4.5307   -2.5033    0.0000 O   0  0  0  0  0  0  0  0  0  0  0  0
    3.1859   -5.7203    0.0000 C   0  0  0  0  0  0  0  0  0  0  0  0
    3.1859   -6.5478    0.0000 O   0  0  0  0  0  0  0  0  0  0  0  0
    3.9100   -5.3064    0.0000 O   0  0  0  0  0  0  0  0  0  0  0  0
    2.4826   -5.3064    0.0000 C   0  0  0  0  0  0  0  0  0  0  0  0
    2.4826   -4.4789    0.0000 F   0  0  0  0  0  0  0  0  0  0  0  0
    1.7585   -5.7203    0.0000 F   0  0  0  0  0  0  0  0  0  0  0  0
    1.7585   -4.9030    0.0000 F   0  0  0  0  0  0  0  0  0  0  0  0
  1  3  2  0
  1  7  1  0
  1  2  1  0
  2  4  2  0
  2  9  1  0
  3  5  1  0
  3 11  1  0
  4  6  1  0
  5  6  2  0
  6 10  1  0
  7  8  1  0
  7 12  1  0
  8  9  2  0
  8 16  1  0
 12 13  1  0
 13 14  2  0
 13 15  1  0
 16 17  1  0
 16 42  2  0
 17 18  1  0
 18 19  1  0
 18 20  2  0
 19 21  1  0
 20 22  1  0
 21 22  2  0
 21 29  1  0
 22 23  1  0
 23 26  2  0
 23 28  1  0
 24 25  2  0
 24 26  1  0
 24 40  1  0
 25 27  1  0
 25 39  1  0
 27 28  2  0
 28 37  1  0
 29 30  1  0
 30 31  1  0
 31 33  1  0
 31 36  1  0
 32 33  1  0
 32 34  1  0
 34 35  1  0
 35 36  1  0
 37 38  1  0
 40 41  1  0
 43 44  2  0
 43 45  1  0
 43 46  1  0
 46 47  1  0
 46 48  1  0
 46 49  1  0
M  END
>  <Formula>  (384) 
C34H37ClF3N3O7S

>  <FW>  (384) 
724.1867 (610.1633+114.0233)

>  <DSSTox_CID>  (384) 
27369

>  <NR-AR>  (384) 
0

>  <NR-AhR>  (384) 
0

>  <SR-HSE>  (384) 
1

$$$$
NCGC00253967-01
     RDKit          2D

 36 40  0  0  1  0  0  0  0  0999 V2000
    8.8110   -2.5852    0.0000 C   0  0  0  0  0  0  0  0  0  0  0  0
    9.7004   -3.1544    0.0000 C   0  0  0  0  0  0  0  0  0  0  0  0
    8.5501   -3.3560    0.0000 O   0  0  0  0  0  0  0  0  0  0  0  0
    1.2570   -3.2848    0.0000 N   0  0  0  0  0  0  0  0  0  0  0  0
    8.1587   -2.1109    0.0000 O   0  0  0  0  0  0  0  0  0  0  0  0
    2.9173   -3.2848    0.0000 N   0  0  0  0  0  0  0  0  0  0  0  0
    9.7004   -3.9845    0.0000 C   0  0  0  0  0  0  0  0  0  0  0  0
    9.4276   -1.2689    0.0000 N   0  0  0  0  0  0  0  0  0  0  0  0
    9.0126    0.0000    0.0000 N   0  0  0  0  0  0  0  0  0  0  0  0
    0.4150   -3.2848    0.0000 C   0  0  0  0  0  0  0  0  0  0  0  0
    9.4276   -2.0990    0.0000 C   0  0  0  0  0  0  0  0  0  0  0  0
   10.4119   -2.7394    0.0000 C   0  0  0  0  0  0  0  0  0  0  0  0
    8.7517   -0.7827    0.0000 C   0  0  0  0  0  0  0  0  0  0  0  0
   10.4119   -4.3996    0.0000 C   0  0  0  0  0  0  0  0  0  0  0  0
    3.7355   -3.2848    0.0000 C   0  0  0  0  0  0  0  0  0  0  0  0
    7.7319   -3.3560    0.0000 C   0  0  0  0  0  0  0  0  0  0  0  0
    9.8427    0.0000    0.0000 C   0  0  0  0  0  0  0  0  0  0  0  0
    1.6958   -2.5615    0.0000 C   0  0  0  0  0  0  0  0  0  0  0  0
    1.6602   -3.9845    0.0000 C   0  0  0  0  0  0  0  0  0  0  0  0
    2.4903   -3.9845    0.0000 C   0  0  0  0  0  0  0  0  0  0  0  0
    2.5140   -2.5615    0.0000 C   0  0  0  0  0  0  0  0  0  0  0  0
   10.0917   -0.7827    0.0000 C   0  0  0  0  0  0  0  0  0  0  0  0
    0.0356   -2.5615    0.0000 O   0  0  0  0  0  0  0  0  0  0  0  0
    7.5066   -2.5734    0.0000 C   0  0  0  0  0  0  0  0  0  0  0  0
    4.1506   -3.9845    0.0000 C   0  0  0  0  0  0  0  0  0  0  0  0
    4.1743   -2.5615    0.0000 C   0  0  0  0  0  0  0  0  0  0  0  0
   11.1353   -3.9845    0.0000 C   0  0  0  0  0  0  0  0  0  0  0  0
    8.9770   -4.3996    0.0000 Cl  0  0  0  0  0  0  0  0  0  0  0  0
    6.2140   -3.2848    0.0000 O   0  0  0  0  0  0  0  0  0  0  0  0
   11.1353   -3.1544    0.0000 C   0  0  0  0  0  0  0  0  0  0  0  0
    5.3838   -3.2848    0.0000 C   0  0  0  0  0  0  0  0  0  0  0  0
    6.9373   -3.7473    0.0000 C   0  0  0  0  0  0  0  0  0  0  0  0
    4.9807   -2.5615    0.0000 C   0  0  0  0  0  0  0  0  0  0  0  0
    4.9451   -3.9845    0.0000 C   0  0  0  0  0  0  0  0  0  0  0  0
   11.8587   -4.3996    0.0000 Cl  0  0  0  0  0  0  0  0  0  0  0  0
    0.0000   -3.9845    0.0000 C   0  0  0  0  0  0  0  0  0  0  0  0
  1  2  1  0
  1  3  1  0
  1  5  1  0
  1 11  1  1
  2  7  2  0
  2 12  1  0
  3 16  1  0
  4 18  1  0
  4 10  1  0
  4 19  1  0
  5 24  1  0
  6 15  1  0
  6 20  1  0
  6 21  1  0
  7 14  1  0
  7 28  1  0
  8 11  1  0
  8 13  1  0
  8 22  1  0
  9 13  2  0
  9 17  1  0
 10 23  2  0
 10 36  1  0
 12 30  2  0
 14 27  2  0
 15 25  2  0
 15 26  1  0
 16 32  1  1
 16 24  1  0
 17 22  2  0
 18 21  1  0
 19 20  1  0
 25 34  1  0
 26 33  2  0
 27 30  1  0
 27 35  1  0
 29 32  1  0
 29 31  1  0
 31 33  1  0
 31 34  2  0
M  END
>  <Formula>  (385) 
C26H28Cl2N4O4

>  <FW>  (385) 
531.4309

>  <DSSTox_CID>  (385) 
9879

>  <NR-AR>  (385) 
0

>  <NR-AhR>  (385) 
1

>  <SR-ARE>  (385) 
1

>  <SR-HSE>  (385) 
1

$$$$
NCGC00254091-01
     RDKit          2D

 43 46  0  0  1  0  0  0  0  0999 V2000
    4.4099   -7.0992    0.0000 Cl  0  0  0  0  0  0  0  0  0  0  0  0
    2.1432   -5.2033    0.0000 C   0  0  0  0  0  0  0  0  0  0  0  0
    2.1432   -6.0380    0.0000 C   0  0  0  0  0  0  0  0  0  0  0  0
    1.4219   -4.7912    0.0000 C   0  0  0  0  0  0  0  0  0  0  0  0
    1.4219   -6.4398    0.0000 C   0  0  0  0  0  0  0  0  0  0  0  0
    0.7110   -5.2033    0.0000 C   0  0  0  0  0  0  0  0  0  0  0  0
    0.7110   -6.0380    0.0000 C   0  0  0  0  0  0  0  0  0  0  0  0
    2.9262   -4.9664    0.0000 C   0  0  0  0  0  0  0  0  0  0  0  0
    3.4105   -5.6155    0.0000 C   0  0  0  0  0  0  0  0  0  0  0  0
    2.9262   -6.2852    0.0000 N   0  0  0  0  0  0  0  0  0  0  0  0
    0.0000   -4.7912    0.0000 Cl  0  0  0  0  0  0  0  0  0  0  0  0
    3.1838   -7.0683    0.0000 C   0  0  0  0  0  0  0  0  0  0  0  0
    2.6274   -7.6762    0.0000 C   0  0  0  0  0  0  0  0  0  0  0  0
    1.2674   -8.1193    0.0000 C   0  0  0  0  0  0  0  0  0  0  0  0
    1.5250   -8.9024    0.0000 C   0  0  0  0  0  0  0  0  0  0  0  0
    1.8237   -7.5113    0.0000 C   0  0  0  0  0  0  0  0  0  0  0  0
    2.3389   -9.0775    0.0000 C   0  0  0  0  0  0  0  0  0  0  0  0
    2.8850   -8.4593    0.0000 C   0  0  0  0  0  0  0  0  0  0  0  0
    3.6887   -8.6345    0.0000 O   0  0  0  0  0  0  0  0  0  0  0  0
    3.9463   -9.4176    0.0000 C   0  0  0  0  0  0  0  0  0  0  0  0
    0.9685   -9.5206    0.0000 O   0  0  0  0  0  0  0  0  0  0  0  0
    1.2261  -10.3037    0.0000 C   0  0  0  0  0  0  0  0  0  0  0  0
    4.2348   -5.6155    0.0000 O   0  0  0  0  0  0  0  0  0  0  0  0
    3.4929   -4.3688    0.0000 C   0  0  0  0  0  0  0  0  0  0  0  0
    2.6687   -4.1730    0.0000 C   0  0  0  0  0  0  0  0  0  0  0  0
    4.6470   -3.1838    0.0000 C   0  0  0  0  0  0  0  0  0  0  0  0
    3.8433   -2.9777    0.0000 C   0  0  0  0  0  0  0  0  0  0  0  0
    4.8633   -3.9772    0.0000 C   0  0  0  0  0  0  0  0  0  0  0  0
    3.2662   -3.5754    0.0000 C   0  0  0  0  0  0  0  0  0  0  0  0
    4.2863   -4.5645    0.0000 C   0  0  0  0  0  0  0  0  0  0  0  0
    4.6572   -5.2961    0.0000 Cl  0  0  0  0  0  0  0  0  0  0  0  0
    2.4626   -3.3693    0.0000 C   0  0  0  0  0  0  0  0  0  0  0  0
    2.2462   -2.5759    0.0000 N   0  0  0  0  0  0  0  0  0  0  0  0
    1.9062   -3.9669    0.0000 O   0  0  0  0  0  0  0  0  0  0  0  0
    1.4528   -2.3801    0.0000 C   0  0  0  0  0  0  0  0  0  0  0  0
    2.8232   -1.9886    0.0000 C   0  0  0  0  0  0  0  0  0  0  0  0
    2.5965   -1.1952    0.0000 C   0  0  0  0  0  0  0  0  0  0  0  0
    1.2261   -1.5868    0.0000 C   0  0  0  0  0  0  0  0  0  0  0  0
    0.1958   -0.5976    0.0000 N   0  0  0  0  0  0  0  0  0  0  0  0
    0.7727    0.0000    0.0000 C   0  0  0  0  0  0  0  0  0  0  0  0
    0.4224   -1.3910    0.0000 C   0  0  0  0  0  0  0  0  0  0  0  0
    1.5764   -0.1958    0.0000 C   0  0  0  0  0  0  0  0  0  0  0  0
    1.8032   -0.9892    0.0000 C   0  0  0  0  0  0  0  0  0  0  0  0
  2  4  2  0
  2  8  1  0
  2  3  1  0
  3  5  2  0
  3 10  1  0
  4  6  1  0
  5  7  1  0
  6  7  2  0
  6 11  1  0
  8  9  1  0
  8 24  1  0
  8 25  1  1
  9 10  1  0
  9 23  2  0
 10 12  1  0
 12 13  1  0
 13 16  2  0
 13 18  1  0
 14 15  2  0
 14 16  1  0
 15 17  1  0
 15 21  1  0
 17 18  2  0
 18 19  1  0
 19 20  1  0
 21 22  1  0
 24 29  2  0
 24 30  1  0
 26 27  2  0
 26 28  1  0
 27 29  1  0
 28 30  2  0
 29 32  1  0
 30 31  1  0
 32 33  1  0
 32 34  2  0
 33 35  1  0
 33 36  1  0
 35 38  1  0
 36 37  1  0
 38 41  2  0
 38 43  1  0
 39 40  2  0
 39 41  1  0
 40 42  1  0
 42 43  2  0
M  END
>  <Formula>  (386) 
C33H32Cl3N3O4

>  <FW>  (386) 
640.9839 (36.4609+604.5229)

>  <DSSTox_CID>  (386) 
27379

>  <NR-AR>  (386) 
0

>  <SR-ATAD5>  (386) 
0

>  <SR-HSE>  (386) 
1

>  <SR-MMP>  (386) 
1

$$$$
NCGC00255136-01
     RDKit          2D

 28 29  0  0  0  0  0  0  0  0999 V2000
    4.2859   -2.6640    0.0000 C   0  0  0  0  0  0  0  0  0  0  0  0
    5.0012   -3.0751    0.0000 C   0  0  0  0  0  0  0  0  0  0  0  0
    3.5707   -3.0751    0.0000 C   0  0  0  0  0  0  0  0  0  0  0  0
    3.7622   -3.7059    0.0000 C   0  0  0  0  0  0  0  0  0  0  0  0
    3.0357   -4.1339    0.0000 O   0  0  0  0  0  0  0  0  0  0  0  0
    4.2859   -4.1339    0.0000 O   0  0  0  0  0  0  0  0  0  0  0  0
    5.0012   -3.8974    0.0000 C   0  0  0  0  0  0  0  0  0  0  0  0
    2.8554   -2.6640    0.0000 C   0  0  0  0  0  0  0  0  0  0  0  0
    1.7178   -3.3229    0.0000 C   0  0  0  0  0  0  0  0  0  0  0  0
    1.0025   -2.9117    0.0000 C   0  0  0  0  0  0  0  0  0  0  0  0
    0.2816   -3.3229    0.0000 C   0  0  0  0  0  0  0  0  0  0  0  0
    0.2816   -4.1508    0.0000 C   0  0  0  0  0  0  0  0  0  0  0  0
    1.0025   -4.5619    0.0000 C   0  0  0  0  0  0  0  0  0  0  0  0
    1.7178   -4.1508    0.0000 C   0  0  0  0  0  0  0  0  0  0  0  0
    2.8554   -4.8041    0.0000 N   0  0  0  0  0  0  0  0  0  0  0  0
    3.5707   -5.3222    0.0000 O   0  0  0  0  0  0  0  0  0  0  0  0
    2.2978   -5.6320    0.0000 O   0  0  0  0  0  0  0  0  0  0  0  0
    2.8554   -1.8361    0.0000 C   0  0  0  0  0  0  0  0  0  0  0  0
    2.1458   -1.4306    0.0000 C   0  0  0  0  0  0  0  0  0  0  0  0
    2.1458   -0.6082    0.0000 O   0  0  0  0  0  0  0  0  0  0  0  0
    1.4306   -1.8361    0.0000 O   0  0  0  0  0  0  0  0  0  0  0  0
    0.7152   -1.4306    0.0000 C   0  0  0  0  0  0  0  0  0  0  0  0
    0.7152   -0.6082    0.0000 C   0  0  0  0  0  0  0  0  0  0  0  0
    0.0000   -0.1915    0.0000 C   0  0  0  0  0  0  0  0  0  0  0  0
    1.2447    0.0000    0.0000 C   0  0  0  0  0  0  0  0  0  0  0  0
    3.5707   -1.4306    0.0000 C   0  0  0  0  0  0  0  0  0  0  0  0
    3.5707   -0.6082    0.0000 C   0  0  0  0  0  0  0  0  0  0  0  0
    4.2859   -1.8361    0.0000 N   0  0  0  0  0  0  0  0  0  0  0  0
  1  2  1  0
  1  3  2  0
  1 28  1  0
  3  4  1  0
  3  8  1  0
  4  5  2  0
  4  6  1  0
  6  7  1  0
  8  9  1  0
  8 18  1  0
  9 10  2  0
  9 14  1  0
 10 11  1  0
 11 12  2  0
 12 13  1  0
 13 14  2  0
 14 15  1  0
 15 16  1  0
 15 17  2  0
 18 19  1  0
 18 26  2  0
 19 20  2  0
 19 21  1  0
 21 22  1  0
 22 23  1  0
 23 24  1  0
 23 25  1  0
 26 27  1  0
 26 28  1  0
M  CHG  2  15   1  16  -1
M  END
>  <Formula>  (387) 
C20H24N2O6

>  <FW>  (387) 
388.4144

>  <DSSTox_CID>  (387) 
3371

>  <NR-AR>  (387) 
0

>  <NR-ER-LBD>  (387) 
0

>  <NR-AhR>  (387) 
1

>  <SR-HSE>  (387) 
1

$$$$
NCGC00256402-01
     RDKit          2D

 34 36  0  0  0  0  0  0  0  0999 V2000
    5.0188   -3.4548    0.0000 C   0  0  0  0  0  0  0  0  0  0  0  0
    4.2969   -3.0594    0.0000 C   0  0  0  0  0  0  0  0  0  0  0  0
    5.0188   -4.2883    0.0000 C   0  0  0  0  0  0  0  0  0  0  0  0
    3.5836   -3.4548    0.0000 C   0  0  0  0  0  0  0  0  0  0  0  0
    5.7235   -3.0594    0.0000 C   0  0  0  0  0  0  0  0  0  0  0  0
    4.2969   -1.6500    0.0000 C   0  0  0  0  0  0  0  0  0  0  0  0
    3.5836   -4.2883    0.0000 C   0  0  0  0  0  0  0  0  0  0  0  0
    5.7235   -4.7095    0.0000 C   0  0  0  0  0  0  0  0  0  0  0  0
    4.2969   -4.7095    0.0000 O   0  0  0  0  0  0  0  0  0  0  0  0
    6.4454   -4.2883    0.0000 C   0  0  0  0  0  0  0  0  0  0  0  0
    6.4454   -3.4548    0.0000 C   0  0  0  0  0  0  0  0  0  0  0  0
    5.0188   -1.2375    0.0000 C   0  0  0  0  0  0  0  0  0  0  0  0
    2.8704   -3.0594    0.0000 C   0  0  0  0  0  0  0  0  0  0  0  0
    2.8704   -4.7095    0.0000 C   0  0  0  0  0  0  0  0  0  0  0  0
    7.1673   -4.7095    0.0000 N   0  0  0  0  0  0  0  0  0  0  0  0
    5.7321   -1.6500    0.0000 C   0  0  0  0  0  0  0  0  0  0  0  0
    2.1485   -4.2883    0.0000 C   0  0  0  0  0  0  0  0  0  0  0  0
    2.1485   -3.4548    0.0000 C   0  0  0  0  0  0  0  0  0  0  0  0
    5.7321   -2.4751    0.0000 O   0  0  0  0  0  0  0  0  0  0  0  0
    1.4266   -4.7095    0.0000 N   0  0  0  0  0  0  0  0  0  0  0  0
    6.4454   -1.2375    0.0000 O   0  0  0  0  0  0  0  0  0  0  0  0
    3.5751   -1.2375    0.0000 C   0  0  0  0  0  0  0  0  0  0  0  0
    7.8720   -4.2883    0.0000 C   0  0  0  0  0  0  0  0  0  0  0  0
    7.1673   -3.0594    0.0000 C   0  0  0  0  0  0  0  0  0  0  0  0
    5.0188   -0.4125    0.0000 C   0  0  0  0  0  0  0  0  0  0  0  0
    1.4266   -3.0594    0.0000 C   0  0  0  0  0  0  0  0  0  0  0  0
    0.7219   -4.2883    0.0000 C   0  0  0  0  0  0  0  0  0  0  0  0
    6.4454   -0.4125    0.0000 C   0  0  0  0  0  0  0  0  0  0  0  0
    8.5939   -4.6751    0.0000 C   0  0  0  0  0  0  0  0  0  0  0  0
    3.5751   -0.4125    0.0000 C   0  0  0  0  0  0  0  0  0  0  0  0
    4.2969    0.0000    0.0000 C   0  0  0  0  0  0  0  0  0  0  0  0
    0.0000   -4.6751    0.0000 C   0  0  0  0  0  0  0  0  0  0  0  0
    7.1587    0.0000    0.0000 C   0  0  0  0  0  0  0  0  0  0  0  0
    4.3141   -5.3368    0.0000 Cl  0  0  0  0  0  0  0  0  0  0  0  0
  1  2  2  0
  1  3  1  0
  1  5  1  0
  2  4  1  0
  2  6  1  0
  3  8  2  0
  3  9  1  0
  4 13  2  0
  4  7  1  0
  5 11  2  0
  6 12  2  0
  6 22  1  0
  7  9  1  0
  7 14  2  0
  8 10  1  0
 10 11  1  0
 10 15  2  0
 11 24  1  0
 12 16  1  0
 12 25  1  0
 13 18  1  0
 14 17  1  0
 15 23  1  0
 16 19  2  0
 16 21  1  0
 17 20  1  0
 17 18  2  0
 18 26  1  0
 20 27  1  0
 21 28  1  0
 22 30  2  0
 23 29  1  0
 25 31  2  0
 27 32  1  0
 28 33  1  0
 30 31  1  0
M  END
>  <Formula>  (388) 
C28H31ClN2O3

>  <FW>  (388) 
479.0103 (442.5494+36.4609)

>  <DSSTox_CID>  (388) 
1243

>  <NR-Aromatase>  (388) 
1

>  <NR-AR>  (388) 
0

>  <SR-ARE>  (388) 
1

>  <SR-ATAD5>  (388) 
0

>  <SR-HSE>  (388) 
1

$$$$
NCGC00247733-01
     RDKit          2D

 35 40  0  0  1  0  0  0  0  0999 V2000
    2.0802   -2.5090    0.0000 C   0  0  0  0  0  0  0  0  0  0  0  0
    2.8035   -2.8931    0.0000 C   0  0  0  0  0  0  0  0  0  0  0  0
    1.3825   -2.9059    0.0000 C   0  0  0  0  0  0  0  0  0  0  0  0
    1.3825   -3.7316    0.0000 C   0  0  0  0  0  0  0  0  0  0  0  0
    2.0802   -1.6834    0.0000 C   0  0  0  0  0  0  0  0  0  0  0  0
    2.1058   -4.1284    0.0000 C   0  0  0  0  0  0  0  0  0  0  0  0
    1.3825   -1.2417    0.0000 C   0  0  0  0  0  0  0  0  0  0  0  0
    0.8577   -2.0994    0.0000 O   0  0  0  0  0  0  0  0  0  0  0  0
    3.5203   -2.4834    0.0000 C   0  0  0  0  0  0  0  0  0  0  0  0
    4.1924   -2.8226    0.0000 N   0  0  0  0  0  0  0  0  0  0  0  0
    2.8035   -1.2417    0.0000 C   0  0  0  0  0  0  0  0  0  0  0  0
    2.8035   -3.7059    0.0000 C   0  0  0  0  0  0  0  0  0  0  0  0
    2.1058   -4.9732    0.0000 C   0  0  0  0  0  0  0  0  0  0  0  0
    3.5203   -1.6834    0.0000 C   0  0  0  0  0  0  0  0  0  0  0  0
    2.1186   -3.0211    0.0000 C   0  0  0  0  0  0  0  0  0  0  0  0
    2.1186   -3.5523    0.0000 C   0  0  0  0  0  0  0  0  0  0  0  0
    2.6946   -2.0418    0.0000 C   0  0  0  0  0  0  0  0  0  0  0  0
    5.1781   -2.8226    0.0000 C   0  0  0  0  0  0  0  0  0  0  0  0
    2.6946   -5.3060    0.0000 C   0  0  0  0  0  0  0  0  0  0  0  0
    1.3825   -0.4096    0.0000 C   0  0  0  0  0  0  0  0  0  0  0  0
    5.6261   -2.0610    0.0000 C   0  0  0  0  0  0  0  0  0  0  0  0
    4.1924   -2.0418    0.0000 C   0  0  0  0  0  0  0  0  0  0  0  0
    5.6261   -1.1649    0.0000 C   0  0  0  0  0  0  0  0  0  0  0  0
    6.4005   -1.6129    0.0000 C   0  0  0  0  0  0  0  0  0  0  0  0
    2.8035   -0.4096    0.0000 C   0  0  0  0  0  0  0  0  0  0  0  0
    0.7745   -4.0835    0.0000 O   0  0  0  0  0  0  0  0  0  0  0  0
    2.1058    0.0000    0.0000 C   0  0  0  0  0  0  0  0  0  0  0  0
    1.4337   -4.9925    0.0000 O   0  0  0  0  0  0  0  0  0  0  0  0
    0.6656    0.0000    0.0000 O   0  0  0  0  0  0  0  0  0  0  0  0
    3.2771   -5.3765    0.0000 C   0  0  0  0  0  0  0  0  0  0  0  0
    2.6946   -5.9845    0.0000 C   0  0  0  0  0  0  0  0  0  0  0  0
    0.0000   -3.6611    0.0000 C   0  0  0  0  0  0  0  0  0  0  0  0
    3.0915   -4.5956    0.0000 C   0  0  0  0  0  0  0  0  0  0  0  0
    1.8305   -5.5557    0.0000 C   0  0  0  0  0  0  0  0  0  0  0  0
    4.1220   -3.8659    0.0000 Cl  0  0  0  0  0  0  0  0  0  0  0  0
  1  2  1  0
  1  3  1  0
  1  5  1  0
  1 17  1  1
  2  9  1  0
  2 12  1  1
  2 15  1  0
  3  4  1  0
  3  8  1  6
  4  6  1  0
  4 16  1  0
  4 26  1  6
  5  7  2  0
  5 11  1  0
  6 13  1  0
  6 12  1  6
  7 20  1  0
  7  8  1  0
  9 10  1  0
  9 14  1  1
 10 22  1  0
 10 18  1  0
 11 14  1  0
 11 25  2  0
 13 19  1  0
 13 28  1  0
 13 34  1  6
 15 16  1  0
 17 22  1  0
 18 21  1  0
 19 30  1  0
 19 31  1  0
 19 33  1  0
 20 29  1  0
 20 27  2  0
 21 23  1  0
 21 24  1  0
 23 24  1  0
 25 27  1  0
 26 32  1  0
M  END
>  <Formula>  (389) 
C29H42ClNO4

>  <FW>  (389) 
504.1011 (467.6401+36.4609)

>  <DSSTox_CID>  (389) 
28831

>  <NR-AR>  (389) 
0

>  <NR-AR-LBD>  (389) 
0

>  <NR-ER-LBD>  (389) 
0

>  <NR-AhR>  (389) 
0

>  <SR-ATAD5>  (389) 
0

>  <SR-HSE>  (389) 
1

$$$$
NCGC00260151-01
     RDKit          2D

 34 38  0  0  0  0  0  0  0  0999 V2000
    5.6475    0.0000    0.0000 O   0  0  0  0  0  0  0  0  0  0  0  0
    5.9027   -0.7825    0.0000 C   0  0  0  0  0  0  0  0  0  0  0  0
    6.7107   -0.9611    0.0000 C   0  0  0  0  0  0  0  0  0  0  0  0
    6.9659   -1.7436    0.0000 C   0  0  0  0  0  0  0  0  0  0  0  0
    6.4130   -2.3560    0.0000 C   0  0  0  0  0  0  0  0  0  0  0  0
    5.6050   -2.1859    0.0000 C   0  0  0  0  0  0  0  0  0  0  0  0
    5.3499   -1.3949    0.0000 C   0  0  0  0  0  0  0  0  0  0  0  0
    6.6682   -3.1384    0.0000 C   0  0  0  0  0  0  0  0  0  0  0  0
    7.4507   -3.3936    0.0000 S   0  0  0  0  0  0  0  0  0  0  0  0
    7.4507   -4.2187    0.0000 C   0  0  0  0  0  0  0  0  0  0  0  0
    8.0630   -4.7715    0.0000 C   0  0  0  0  0  0  0  0  0  0  0  0
    7.8929   -5.5710    0.0000 C   0  0  0  0  0  0  0  0  0  0  0  0
    8.5053   -6.1238    0.0000 O   0  0  0  0  0  0  0  0  0  0  0  0
    7.1104   -5.8261    0.0000 C   0  0  0  0  0  0  0  0  0  0  0  0
    6.4981   -5.2818    0.0000 C   0  0  0  0  0  0  0  0  0  0  0  0
    6.6682   -4.4738    0.0000 C   0  0  0  0  0  0  0  0  0  0  0  0
    6.1833   -3.8019    0.0000 C   0  0  0  0  0  0  0  0  0  0  0  0
    5.3583   -3.8019    0.0000 C   0  0  0  0  0  0  0  0  0  0  0  0
    4.9501   -3.0874    0.0000 O   0  0  0  0  0  0  0  0  0  0  0  0
    4.9501   -4.5163    0.0000 C   0  0  0  0  0  0  0  0  0  0  0  0
    5.3583   -5.2308    0.0000 C   0  0  0  0  0  0  0  0  0  0  0  0
    4.9501   -5.9452    0.0000 C   0  0  0  0  0  0  0  0  0  0  0  0
    4.1251   -5.9452    0.0000 C   0  0  0  0  0  0  0  0  0  0  0  0
    3.7083   -6.6597    0.0000 O   0  0  0  0  0  0  0  0  0  0  0  0
    2.8833   -6.6597    0.0000 C   0  0  0  0  0  0  0  0  0  0  0  0
    2.4751   -7.3741    0.0000 C   0  0  0  0  0  0  0  0  0  0  0  0
    1.6501   -7.3741    0.0000 N   0  0  0  0  0  0  0  0  0  0  0  0
    1.2333   -8.0886    0.0000 C   0  0  0  0  0  0  0  0  0  0  0  0
    0.4083   -8.0886    0.0000 C   0  0  0  0  0  0  0  0  0  0  0  0
    0.0000   -7.3741    0.0000 C   0  0  0  0  0  0  0  0  0  0  0  0
    0.4083   -6.6597    0.0000 C   0  0  0  0  0  0  0  0  0  0  0  0
    1.2333   -6.6597    0.0000 C   0  0  0  0  0  0  0  0  0  0  0  0
    3.7083   -5.2308    0.0000 C   0  0  0  0  0  0  0  0  0  0  0  0
    4.1251   -4.5163    0.0000 C   0  0  0  0  0  0  0  0  0  0  0  0
  1  2  1  0
  2  3  2  0
  2  7  1  0
  3  4  1  0
  4  5  2  0
  5  6  1  0
  5  8  1  0
  6  7  2  0
  8  9  1  0
  8 17  2  0
  9 10  1  0
 10 11  2  0
 10 16  1  0
 11 12  1  0
 12 13  1  0
 12 14  2  0
 14 15  1  0
 15 16  2  0
 16 17  1  0
 17 18  1  0
 18 19  2  0
 18 20  1  0
 20 21  2  0
 20 34  1  0
 21 22  1  0
 22 23  2  0
 23 24  1  0
 23 33  1  0
 24 25  1  0
 25 26  1  0
 26 27  1  0
 27 28  1  0
 27 32  1  0
 28 29  1  0
 29 30  1  0
 30 31  1  0
 31 32  1  0
 33 34  2  0
M  END
>  <Formula>  (390) 
C28H27NO4S

>  <FW>  (390) 
473.5833

>  <DSSTox_CID>  (390) 
3550

>  <NR-Aromatase>  (390) 
1

>  <NR-AR>  (390) 
0

>  <SR-ARE>  (390) 
0

>  <SR-ATAD5>  (390) 
0

>  <SR-HSE>  (390) 
1

>  <SR-MMP>  (390) 
1

>  <SR-p53>  (390) 
1

$$$$
NCGC00255153-01
     RDKit          2D

 35 38  0  0  0  0  0  0  0  0999 V2000
    4.9396   -1.4871    0.0000 C   0  0  0  0  0  0  0  0  0  0  0  0
    5.4091   -0.8088    0.0000 C   0  0  0  0  0  0  0  0  0  0  0  0
    4.1482   -1.2262    0.0000 C   0  0  0  0  0  0  0  0  0  0  0  0
    5.3396   -2.1915    0.0000 C   0  0  0  0  0  0  0  0  0  0  0  0
    6.2353   -0.8088    0.0000 C   0  0  0  0  0  0  0  0  0  0  0  0
    4.9396   -0.1565    0.0000 S   0  0  0  0  0  0  0  0  0  0  0  0
    4.1482   -0.4000    0.0000 C   0  0  0  0  0  0  0  0  0  0  0  0
    3.4351   -1.6349    0.0000 C   0  0  0  0  0  0  0  0  0  0  0  0
    4.9396   -2.9046    0.0000 C   0  0  0  0  0  0  0  0  0  0  0  0
    6.1657   -2.1915    0.0000 O   0  0  0  0  0  0  0  0  0  0  0  0
    6.6353   -1.5305    0.0000 C   0  0  0  0  0  0  0  0  0  0  0  0
    6.6353   -0.1130    0.0000 C   0  0  0  0  0  0  0  0  0  0  0  0
    3.4351    0.0000    0.0000 C   0  0  0  0  0  0  0  0  0  0  0  0
    2.7306   -1.2262    0.0000 C   0  0  0  0  0  0  0  0  0  0  0  0
    4.1134   -2.9046    0.0000 C   0  0  0  0  0  0  0  0  0  0  0  0
    5.3396   -3.6264    0.0000 C   0  0  0  0  0  0  0  0  0  0  0  0
    7.4615   -1.5305    0.0000 C   0  0  0  0  0  0  0  0  0  0  0  0
    7.4615   -0.1130    0.0000 C   0  0  0  0  0  0  0  0  0  0  0  0
    2.7306   -0.4000    0.0000 C   0  0  0  0  0  0  0  0  0  0  0  0
    3.6872   -3.6264    0.0000 C   0  0  0  0  0  0  0  0  0  0  0  0
    4.9396   -4.3308    0.0000 C   0  0  0  0  0  0  0  0  0  0  0  0
    7.8702   -0.8088    0.0000 C   0  0  0  0  0  0  0  0  0  0  0  0
    2.0089    0.0000    0.0000 O   0  0  0  0  0  0  0  0  0  0  0  0
    4.1134   -4.3308    0.0000 C   0  0  0  0  0  0  0  0  0  0  0  0
    8.6963   -0.8088    0.0000 O   0  0  0  0  0  0  0  0  0  0  0  0
    3.6872   -5.0352    0.0000 O   0  0  0  0  0  0  0  0  0  0  0  0
    2.8698   -5.0352    0.0000 C   0  0  0  0  0  0  0  0  0  0  0  0
    2.4610   -4.3308    0.0000 C   0  0  0  0  0  0  0  0  0  0  0  0
    1.6436   -4.3308    0.0000 N   0  0  0  0  0  0  0  0  0  0  0  0
    1.2349   -5.0352    0.0000 C   0  0  0  0  0  0  0  0  0  0  0  0
    1.2349   -3.6264    0.0000 C   0  0  0  0  0  0  0  0  0  0  0  0
    0.4087   -5.0352    0.0000 C   0  0  0  0  0  0  0  0  0  0  0  0
    0.4087   -3.6264    0.0000 C   0  0  0  0  0  0  0  0  0  0  0  0
    0.0000   -4.3308    0.0000 C   0  0  0  0  0  0  0  0  0  0  0  0
    1.2349   -1.6349    0.0000 Cl  0  0  0  0  0  0  0  0  0  0  0  0
  1  2  2  0
  1  3  1  0
  1  4  1  0
  2  5  1  0
  2  6  1  0
  3  7  2  0
  3  8  1  0
  4  9  1  0
  4 10  2  0
  5 11  2  0
  5 12  1  0
  6  7  1  0
  7 13  1  0
  8 14  2  0
  9 15  2  0
  9 16  1  0
 11 17  1  0
 12 18  2  0
 13 19  2  0
 14 19  1  0
 15 20  1  0
 16 21  2  0
 17 22  2  0
 18 22  1  0
 19 23  1  0
 20 24  2  0
 21 24  1  0
 22 25  1  0
 24 26  1  0
 26 27  1  0
 27 28  1  0
 28 29  1  0
 29 30  1  0
 29 31  1  0
 30 32  1  0
 31 33  1  0
 32 34  1  0
 33 34  1  0
M  END
>  <Formula>  (391) 
C28H28ClNO4S

>  <FW>  (391) 
510.0442 (473.5833+36.4609)

>  <DSSTox_CID>  (391) 
14181

>  <NR-Aromatase>  (391) 
1

>  <NR-AR>  (391) 
0

>  <NR-AhR>  (391) 
0

>  <SR-ARE>  (391) 
0

>  <SR-HSE>  (391) 
1

>  <SR-MMP>  (391) 
1

>  <SR-p53>  (391) 
1

$$$$
NCGC00255354-01
     RDKit          2D

 23 24  0  0  0  0  0  0  0  0999 V2000
    2.2346   -2.4702    0.0000 N   0  0  0  0  0  0  0  0  0  0  0  0
    1.5703   -2.9594    0.0000 C   0  0  0  0  0  0  0  0  0  0  0  0
    2.8990   -2.9594    0.0000 C   0  0  0  0  0  0  0  0  0  0  0  0
    1.8300   -3.7445    0.0000 C   0  0  0  0  0  0  0  0  0  0  0  0
    2.6514   -3.7445    0.0000 C   0  0  0  0  0  0  0  0  0  0  0  0
    3.1285   -4.4088    0.0000 C   0  0  0  0  0  0  0  0  0  0  0  0
    3.6177   -5.0732    0.0000 N   0  0  0  0  0  0  0  0  0  0  0  0
    1.3408   -4.4088    0.0000 Br  0  0  0  0  0  0  0  0  0  0  0  0
    3.6841   -2.6997    0.0000 C   0  0  0  0  0  0  0  0  0  0  0  0
    4.3001   -3.2553    0.0000 C   0  0  0  0  0  0  0  0  0  0  0  0
    3.8653   -1.8964    0.0000 C   0  0  0  0  0  0  0  0  0  0  0  0
    5.0853   -2.9956    0.0000 C   0  0  0  0  0  0  0  0  0  0  0  0
    4.6383   -1.6367    0.0000 C   0  0  0  0  0  0  0  0  0  0  0  0
    5.2544   -2.1924    0.0000 C   0  0  0  0  0  0  0  0  0  0  0  0
    6.0395   -1.9327    0.0000 Cl  0  0  0  0  0  0  0  0  0  0  0  0
    2.2346   -1.6488    0.0000 C   0  0  0  0  0  0  0  0  0  0  0  0
    1.5220   -1.2260    0.0000 O   0  0  0  0  0  0  0  0  0  0  0  0
    1.5220   -0.4047    0.0000 C   0  0  0  0  0  0  0  0  0  0  0  0
    0.8033    0.0000    0.0000 C   0  0  0  0  0  0  0  0  0  0  0  0
    0.7851   -2.6997    0.0000 C   0  0  0  0  0  0  0  0  0  0  0  0
    1.0448   -1.9145    0.0000 F   0  0  0  0  0  0  0  0  0  0  0  0
    0.5254   -3.4848    0.0000 F   0  0  0  0  0  0  0  0  0  0  0  0
    0.0000   -2.4400    0.0000 F   0  0  0  0  0  0  0  0  0  0  0  0
  1  2  1  0
  1  3  1  0
  1 16  1  0
  2  4  2  0
  2 20  1  0
  3  5  2  0
  3  9  1  0
  4  5  1  0
  4  8  1  0
  5  6  1  0
  6  7  3  0
  9 10  2  0
  9 11  1  0
 10 12  1  0
 11 13  2  0
 12 14  2  0
 13 14  1  0
 14 15  1  0
 16 17  1  0
 17 18  1  0
 18 19  1  0
 20 21  1  0
 20 22  1  0
 20 23  1  0
M  END
>  <Formula>  (392) 
C15H11BrClF3N2O

>  <FW>  (392) 
407.6128

>  <DSSTox_CID>  (392) 
12533

>  <NR-AR>  (392) 
0

>  <NR-AhR>  (392) 
0

>  <SR-ATAD5>  (392) 
0

>  <SR-HSE>  (392) 
1

>  <SR-MMP>  (392) 
1

>  <SR-p53>  (392) 
1

$$$$
NCGC00255075-01
     RDKit          2D

 29 30  0  0  0  0  0  0  0  0999 V2000
    2.8538   -2.3591    0.0000 N   0  0  0  0  0  0  0  0  0  0  0  0
    2.1385   -2.7777    0.0000 C   0  0  0  0  0  0  0  0  0  0  0  0
    2.8538   -1.5449    0.0000 C   0  0  0  0  0  0  0  0  0  0  0  0
    2.1385   -1.1339    0.0000 C   0  0  0  0  0  0  0  0  0  0  0  0
    1.4231   -2.3591    0.0000 C   0  0  0  0  0  0  0  0  0  0  0  0
    1.4231   -1.5449    0.0000 C   0  0  0  0  0  0  0  0  0  0  0  0
    3.5539   -1.1339    0.0000 N   0  0  0  0  0  0  0  0  0  0  0  0
    2.1385   -0.3120    0.0000 Cl  0  0  0  0  0  0  0  0  0  0  0  0
    4.7564   -1.6438    0.0000 C   0  0  0  0  0  0  0  0  0  0  0  0
    5.4717   -1.2328    0.0000 C   0  0  0  0  0  0  0  0  0  0  0  0
    4.7564   -2.4581    0.0000 C   0  0  0  0  0  0  0  0  0  0  0  0
    6.1871   -1.6438    0.0000 C   0  0  0  0  0  0  0  0  0  0  0  0
    5.4717   -2.8767    0.0000 C   0  0  0  0  0  0  0  0  0  0  0  0
    6.1871   -2.4581    0.0000 C   0  0  0  0  0  0  0  0  0  0  0  0
    6.8948   -1.2328    0.0000 Cl  0  0  0  0  0  0  0  0  0  0  0  0
    5.4717   -0.4110    0.0000 N   0  0  0  0  0  0  0  0  0  0  0  0
    4.7564    0.0000    0.0000 O   0  0  0  0  0  0  0  0  0  0  0  0
    6.1871    0.0000    0.0000 O   0  0  0  0  0  0  0  0  0  0  0  0
    4.0486   -2.8767    0.0000 N   0  0  0  0  0  0  0  0  0  0  0  0
    4.0486   -3.6985    0.0000 O   0  0  0  0  0  0  0  0  0  0  0  0
    3.3941   -2.4505    0.0000 O   0  0  0  0  0  0  0  0  0  0  0  0
    6.8948   -2.8767    0.0000 C   0  0  0  0  0  0  0  0  0  0  0  0
    6.4839   -3.5920    0.0000 F   0  0  0  0  0  0  0  0  0  0  0  0
    7.3058   -2.1613    0.0000 F   0  0  0  0  0  0  0  0  0  0  0  0
    7.6102   -3.2800    0.0000 F   0  0  0  0  0  0  0  0  0  0  0  0
    0.7154   -2.7777    0.0000 C   0  0  0  0  0  0  0  0  0  0  0  0
    0.2968   -2.0624    0.0000 F   0  0  0  0  0  0  0  0  0  0  0  0
    1.1187   -3.4931    0.0000 F   0  0  0  0  0  0  0  0  0  0  0  0
    0.0000   -3.1811    0.0000 F   0  0  0  0  0  0  0  0  0  0  0  0
  1  2  2  0
  1  3  1  0
  2  5  1  0
  3  4  2  0
  3  7  1  0
  4  6  1  0
  4  8  1  0
  5  6  2  0
  5 26  1  0
  7  9  1  0
  9 10  2  0
  9 11  1  0
 10 12  1  0
 10 16  1  0
 11 13  2  0
 11 19  1  0
 12 14  2  0
 12 15  1  0
 13 14  1  0
 14 22  1  0
 16 17  1  0
 16 18  2  0
 19 20  1  0
 19 21  2  0
 22 23  1  0
 22 24  1  0
 22 25  1  0
 26 27  1  0
 26 28  1  0
 26 29  1  0
M  CHG  4  16   1  17  -1  19   1  20  -1
M  END
>  <Formula>  (393) 
C13H4Cl2F6N4O4

>  <FW>  (393) 
465.0917

>  <DSSTox_CID>  (393) 
12551

>  <NR-Aromatase>  (393) 
1

>  <NR-AR>  (393) 
0

>  <NR-ER-LBD>  (393) 
1

>  <NR-PPAR-gamma>  (393) 
1

>  <NR-AhR>  (393) 
1

>  <SR-ATAD5>  (393) 
0

>  <SR-HSE>  (393) 
1

>  <SR-p53>  (393) 
1

$$$$
NCGC00257462-01
     RDKit          2D

 33 37  0  0  0  0  0  0  0  0999 V2000
    2.5625   -1.4177    0.0000 C   0  0  0  0  0  0  0  0  0  0  0  0
    2.2007   -2.1532    0.0000 C   0  0  0  0  0  0  0  0  0  0  0  0
    3.7371   -2.2659    0.0000 O   0  0  0  0  0  0  0  0  0  0  0  0
    3.3811   -1.3584    0.0000 C   0  0  0  0  0  0  0  0  0  0  0  0
    2.9837   -2.9244    0.0000 C   0  0  0  0  0  0  0  0  0  0  0  0
    2.1058   -0.7415    0.0000 C   0  0  0  0  0  0  0  0  0  0  0  0
    1.3881   -2.2125    0.0000 C   0  0  0  0  0  0  0  0  0  0  0  0
    0.9254   -1.5245    0.0000 C   0  0  0  0  0  0  0  0  0  0  0  0
    1.2872   -0.8008    0.0000 C   0  0  0  0  0  0  0  0  0  0  0  0
    3.1082   -4.7751    0.0000 O   0  0  0  0  0  0  0  0  0  0  0  0
    2.3312   -4.4844    0.0000 C   0  0  0  0  0  0  0  0  0  0  0  0
    3.7489   -4.2353    0.0000 C   0  0  0  0  0  0  0  0  0  0  0  0
    2.1948   -3.6777    0.0000 C   0  0  0  0  0  0  0  0  0  0  0  0
    3.6006   -3.4286    0.0000 C   0  0  0  0  0  0  0  0  0  0  0  0
    4.5260   -4.5260    0.0000 C   0  0  0  0  0  0  0  0  0  0  0  0
    1.6965   -5.0242    0.0000 C   0  0  0  0  0  0  0  0  0  0  0  0
    1.4058   -3.3930    0.0000 C   0  0  0  0  0  0  0  0  0  0  0  0
    4.2353   -2.8947    0.0000 C   0  0  0  0  0  0  0  0  0  0  0  0
    5.1548   -3.9861    0.0000 C   0  0  0  0  0  0  0  0  0  0  0  0
    0.7771   -3.9268    0.0000 C   0  0  0  0  0  0  0  0  0  0  0  0
    0.9195   -4.7336    0.0000 C   0  0  0  0  0  0  0  0  0  0  0  0
    5.0124   -3.1735    0.0000 C   0  0  0  0  0  0  0  0  0  0  0  0
    3.7371   -0.6288    0.0000 O   0  0  0  0  0  0  0  0  0  0  0  0
    0.0000   -3.6421    0.0000 Br  0  0  0  0  0  0  0  0  0  0  0  0
    1.8448   -5.8428    0.0000 Br  0  0  0  0  0  0  0  0  0  0  0  0
    4.6683   -5.3327    0.0000 Br  0  0  0  0  0  0  0  0  0  0  0  0
    5.6411   -2.6456    0.0000 Br  0  0  0  0  0  0  0  0  0  0  0  0
    2.4617    0.0000    0.0000 Cl  0  0  0  0  0  0  0  0  0  0  0  0
    0.8245   -0.1127    0.0000 Cl  0  0  0  0  0  0  0  0  0  0  0  0
    0.1068   -1.5838    0.0000 Cl  0  0  0  0  0  0  0  0  0  0  0  0
    1.0262   -2.9541    0.0000 Cl  0  0  0  0  0  0  0  0  0  0  0  0
    0.2907   -5.2734    0.0000 O   0  0  0  0  0  0  0  0  0  0  0  0
    5.9318   -4.2768    0.0000 O   0  0  0  0  0  0  0  0  0  0  0  0
  1  2  2  0
  1  4  1  0
  1  6  1  0
  2  5  1  0
  2  7  1  0
  3  4  1  0
  3  5  1  0
  4 23  2  0
  5 14  1  0
  5 13  1  0
  6  9  2  0
  6 28  1  0
  7  8  2  0
  7 31  1  0
  8  9  1  0
  8 30  1  0
  9 29  1  0
 10 11  1  0
 10 12  1  0
 11 13  2  0
 11 16  1  0
 12 14  2  0
 12 15  1  0
 13 17  1  0
 14 18  1  0
 15 19  2  0
 15 26  1  0
 16 21  2  0
 16 25  1  0
 17 20  2  0
 18 22  2  0
 19 22  1  0
 19 33  1  0
 20 21  1  0
 20 24  1  0
 21 32  1  0
 22 27  1  0
M  END
>  <Formula>  (394) 
C20H4Br4Cl4O5

>  <FW>  (394) 
785.6708

>  <DSSTox_CID>  (394) 
11089

>  <NR-AR>  (394) 
0

>  <NR-AR-LBD>  (394) 
0

>  <NR-ER-LBD>  (394) 
0

>  <SR-ARE>  (394) 
0

>  <SR-ATAD5>  (394) 
0

>  <SR-HSE>  (394) 
1

$$$$
NCGC00182713-01
     RDKit          2D

 34 37  0  0  0  0  0  0  0  0999 V2000
    6.4307   -1.6602    0.0000 C   0  0  0  0  0  0  0  0  0  0  0  0
    6.4307   -2.4902    0.0000 C   0  0  0  0  0  0  0  0  0  0  0  0
    5.7206   -1.2401    0.0000 C   0  0  0  0  0  0  0  0  0  0  0  0
    5.7206   -2.8903    0.0000 C   0  0  0  0  0  0  0  0  0  0  0  0
    5.0005   -1.6602    0.0000 C   0  0  0  0  0  0  0  0  0  0  0  0
    5.0005   -2.4902    0.0000 C   0  0  0  0  0  0  0  0  0  0  0  0
    7.1508   -1.2401    0.0000 N   0  0  0  0  0  0  0  0  0  0  0  0
    7.8608   -1.6602    0.0000 C   0  0  0  0  0  0  0  0  0  0  0  0
    7.1508   -2.8903    0.0000 C   0  0  0  0  0  0  0  0  0  0  0  0
    7.8608   -2.4902    0.0000 N   0  0  0  0  0  0  0  0  0  0  0  0
    4.2804   -1.2401    0.0000 O   0  0  0  0  0  0  0  0  0  0  0  0
    3.5704   -1.6602    0.0000 C   0  0  0  0  0  0  0  0  0  0  0  0
    2.8503   -1.2401    0.0000 C   0  0  0  0  0  0  0  0  0  0  0  0
    2.1502   -1.6501    0.0000 C   0  0  0  0  0  0  0  0  0  0  0  0
    1.4301   -1.2401    0.0000 N   0  0  0  0  0  0  0  0  0  0  0  0
    0.7201   -1.6501    0.0000 C   0  0  0  0  0  0  0  0  0  0  0  0
    1.4301   -0.4200    0.0000 C   0  0  0  0  0  0  0  0  0  0  0  0
    0.0000   -1.2401    0.0000 C   0  0  0  0  0  0  0  0  0  0  0  0
    0.7201    0.0000    0.0000 C   0  0  0  0  0  0  0  0  0  0  0  0
    0.0000   -0.4200    0.0000 O   0  0  0  0  0  0  0  0  0  0  0  0
    4.2804   -2.8903    0.0000 N   0  0  0  0  0  0  0  0  0  0  0  0
    4.2804   -3.7204    0.0000 C   0  0  0  0  0  0  0  0  0  0  0  0
    3.5704   -4.1304    0.0000 C   0  0  0  0  0  0  0  0  0  0  0  0
    5.0005   -4.1404    0.0000 O   0  0  0  0  0  0  0  0  0  0  0  0
    2.8503   -3.7204    0.0000 C   0  0  0  0  0  0  0  0  0  0  0  0
    7.1508   -3.7204    0.0000 N   0  0  0  0  0  0  0  0  0  0  0  0
    7.8608   -4.1404    0.0000 C   0  0  0  0  0  0  0  0  0  0  0  0
    8.5809   -3.7204    0.0000 C   0  0  0  0  0  0  0  0  0  0  0  0
    7.8608   -4.9605    0.0000 C   0  0  0  0  0  0  0  0  0  0  0  0
    9.2810   -4.1404    0.0000 C   0  0  0  0  0  0  0  0  0  0  0  0
    8.5809   -5.3706    0.0000 C   0  0  0  0  0  0  0  0  0  0  0  0
    9.2810   -4.9605    0.0000 C   0  0  0  0  0  0  0  0  0  0  0  0
   10.0010   -3.7204    0.0000 Cl  0  0  0  0  0  0  0  0  0  0  0  0
   10.0010   -5.3706    0.0000 F   0  0  0  0  0  0  0  0  0  0  0  0
  1  3  2  0
  1  7  1  0
  1  2  1  0
  2  4  2  0
  2  9  1  0
  3  5  1  0
  4  6  1  0
  5  6  2  0
  5 11  1  0
  6 21  1  0
  7  8  2  0
  8 10  1  0
  9 10  2  0
  9 26  1  0
 11 12  1  0
 12 13  1  0
 13 14  1  0
 14 15  1  0
 15 16  1  0
 15 17  1  0
 16 18  1  0
 17 19  1  0
 18 20  1  0
 19 20  1  0
 21 22  1  0
 22 23  1  0
 22 24  2  0
 23 25  2  0
 26 27  1  0
 27 28  2  0
 27 29  1  0
 28 30  1  0
 29 31  2  0
 30 32  2  0
 30 33  1  0
 31 32  1  0
 32 34  1  0
M  END
>  <Formula>  (395) 
C24H25ClFN5O3

>  <FW>  (395) 
485.9384

>  <DSSTox_CID>  (395) 
28869

>  <NR-AR>  (395) 
0

>  <NR-ER>  (395) 
1

>  <NR-ER-LBD>  (395) 
1

>  <NR-PPAR-gamma>  (395) 
0

>  <NR-AhR>  (395) 
0

>  <SR-ARE>  (395) 
1

>  <SR-HSE>  (395) 
1

>  <SR-p53>  (395) 
1

$$$$
NCGC00183830-01
     RDKit          2D

 30 31  0  0  0  0  0  0  0  0999 V2000
    4.2796   -4.2602    0.0000 C   0  0  0  0  0  0  0  0  0  0  0  0
    3.5964   -3.8284    0.0000 C   0  0  0  0  0  0  0  0  0  0  0  0
    2.8488   -4.2602    0.0000 C   0  0  0  0  0  0  0  0  0  0  0  0
    2.8488   -5.0852    0.0000 C   0  0  0  0  0  0  0  0  0  0  0  0
    3.5964   -5.5042    0.0000 C   0  0  0  0  0  0  0  0  0  0  0  0
    4.2796   -5.0852    0.0000 C   0  0  0  0  0  0  0  0  0  0  0  0
    4.2796   -1.2439    0.0000 C   0  0  0  0  0  0  0  0  0  0  0  0
    3.5964   -0.8250    0.0000 N   0  0  0  0  0  0  0  0  0  0  0  0
    2.8488   -1.2439    0.0000 C   0  0  0  0  0  0  0  0  0  0  0  0
    2.8488   -2.0689    0.0000 C   0  0  0  0  0  0  0  0  0  0  0  0
    3.5964   -2.4749    0.0000 C   0  0  0  0  0  0  0  0  0  0  0  0
    4.2796   -2.0689    0.0000 C   0  0  0  0  0  0  0  0  0  0  0  0
    5.0272   -0.8250    0.0000 C   0  0  0  0  0  0  0  0  0  0  0  0
    5.0272   -2.4749    0.0000 C   0  0  0  0  0  0  0  0  0  0  0  0
    5.0272   -3.3322    0.0000 O   0  0  0  0  0  0  0  0  0  0  0  0
    5.7426   -2.0689    0.0000 O   0  0  0  0  0  0  0  0  0  0  0  0
    6.4452   -2.4749    0.0000 C   0  0  0  0  0  0  0  0  0  0  0  0
    5.0272   -5.5042    0.0000 Cl  0  0  0  0  0  0  0  0  0  0  0  0
    5.0272   -3.8284    0.0000 Cl  0  0  0  0  0  0  0  0  0  0  0  0
    2.1333   -2.4749    0.0000 C   0  0  0  0  0  0  0  0  0  0  0  0
    2.1333   -0.8250    0.0000 C   0  0  0  0  0  0  0  0  0  0  0  0
    1.4179   -1.2439    0.0000 O   0  0  0  0  0  0  0  0  0  0  0  0
    0.7026   -0.8250    0.0000 C   0  0  0  0  0  0  0  0  0  0  0  0
    0.7026    0.0000    0.0000 O   0  0  0  0  0  0  0  0  0  0  0  0
    0.0000   -1.2439    0.0000 N   0  0  0  0  0  0  0  0  0  0  0  0
    1.4179   -2.0689    0.0000 O   0  0  0  0  0  0  0  0  0  0  0  0
    2.1333   -3.2999    0.0000 O   0  0  0  0  0  0  0  0  0  0  0  0
    0.7026   -2.4749    0.0000 C   0  0  0  0  0  0  0  0  0  0  0  0
    0.7026   -3.2999    0.0000 C   0  0  0  0  0  0  0  0  0  0  0  0
    0.0000   -2.0689    0.0000 C   0  0  0  0  0  0  0  0  0  0  0  0
  1 19  1  0
  1  6  2  0
  1  2  1  0
  2 11  1  0
  2  3  2  0
  3  4  1  0
  4  5  2  0
  5  6  1  0
  6 18  1  0
  7 12  2  0
  7 13  1  0
  7  8  1  0
  8  9  1  0
  9 21  1  0
  9 10  2  0
 10 20  1  0
 10 11  1  0
 11 12  1  0
 12 14  1  0
 14 15  2  0
 14 16  1  0
 16 17  1  0
 20 26  1  0
 20 27  2  0
 21 22  1  0
 22 23  1  0
 23 24  2  0
 23 25  1  0
 26 28  1  0
 28 29  1  0
 28 30  1  0
M  END
>  <Formula>  (396) 
C20H22Cl2N2O6

>  <FW>  (396) 
457.3045

>  <DSSTox_CID>  (396) 
28738

>  <NR-AR>  (396) 
0

>  <NR-AR-LBD>  (396) 
1

>  <NR-ER>  (396) 
0

>  <NR-PPAR-gamma>  (396) 
1

>  <SR-ARE>  (396) 
1

>  <SR-ATAD5>  (396) 
0

>  <SR-HSE>  (396) 
1

>  <SR-p53>  (396) 
1

$$$$
NCGC00255126-01
     RDKit          2D

 42 48  0  0  1  0  0  0  0  0999 V2000
    0.0000   -1.9800    0.0000 C   0  0  0  0  0  0  0  0  0  0  0  0
    0.8250   -1.9800    0.0000 O   0  0  0  0  0  0  0  0  0  0  0  0
    1.2375   -2.6977    0.0000 C   0  0  0  0  0  0  0  0  0  0  0  0
    2.0625   -2.6977    0.0000 C   0  0  0  0  0  0  0  0  0  0  0  0
    2.4749   -3.4072    0.0000 C   0  0  0  0  0  0  0  0  0  0  0  0
    2.0625   -4.1249    0.0000 C   0  0  0  0  0  0  0  0  0  0  0  0
    1.2375   -4.1249    0.0000 C   0  0  0  0  0  0  0  0  0  0  0  0
    0.8250   -4.8427    0.0000 O   0  0  0  0  0  0  0  0  0  0  0  0
    0.0000   -4.8427    0.0000 C   0  0  0  0  0  0  0  0  0  0  0  0
    0.8250   -3.4072    0.0000 C   0  0  0  0  0  0  0  0  0  0  0  0
    0.0000   -3.4072    0.0000 O   0  0  0  0  0  0  0  0  0  0  0  0
    3.2999   -3.4072    0.0000 C   0  0  0  0  0  0  0  0  0  0  0  0
    3.7124   -2.6977    0.0000 C   0  0  0  0  0  0  0  0  0  0  0  0
    3.2999   -1.9800    0.0000 C   0  0  0  0  0  0  0  0  0  0  0  0
    3.7124   -1.2705    0.0000 C   0  0  0  0  0  0  0  0  0  0  0  0
    3.4567   -0.4785    0.0000 O   0  0  0  0  0  0  0  0  0  0  0  0
    4.1249    0.0000    0.0000 C   0  0  0  0  0  0  0  0  0  0  0  0
    4.7932   -0.4785    0.0000 O   0  0  0  0  0  0  0  0  0  0  0  0
    4.5374   -1.2705    0.0000 C   0  0  0  0  0  0  0  0  0  0  0  0
    4.9499   -1.9800    0.0000 C   0  0  0  0  0  0  0  0  0  0  0  0
    4.5374   -2.6977    0.0000 C   0  0  0  0  0  0  0  0  0  0  0  0
    4.9499   -3.4072    0.0000 C   0  0  0  0  0  0  0  0  0  0  0  0
    5.7749   -3.4072    0.0000 O   0  0  0  0  0  0  0  0  0  0  0  0
    6.1874   -4.1249    0.0000 C   0  0  0  0  0  0  0  0  0  0  0  0
    5.7749   -4.8427    0.0000 O   0  0  0  0  0  0  0  0  0  0  0  0
    6.1874   -5.5521    0.0000 C   0  0  0  0  0  0  0  0  0  0  0  0
    5.7749   -6.2699    0.0000 C   0  0  0  0  0  0  0  0  0  0  0  0
    6.1874   -6.9793    0.0000 O   0  0  0  0  0  0  0  0  0  0  0  0
    7.0123   -6.9793    0.0000 C   0  0  0  0  0  0  0  0  0  0  0  0
    7.4249   -7.6971    0.0000 C   0  0  0  0  0  0  0  0  0  0  0  0
    7.4249   -6.2699    0.0000 O   0  0  0  0  0  0  0  0  0  0  0  0
    7.0123   -5.5521    0.0000 C   0  0  0  0  0  0  0  0  0  0  0  0
    7.4249   -4.8427    0.0000 C   0  0  0  0  0  0  0  0  0  0  0  0
    8.2498   -4.8427    0.0000 O   0  0  0  0  0  0  0  0  0  0  0  0
    7.0123   -4.1249    0.0000 C   0  0  0  0  0  0  0  0  0  0  0  0
    7.4249   -3.4072    0.0000 O   0  0  0  0  0  0  0  0  0  0  0  0
    4.5374   -4.1249    0.0000 C   0  0  0  0  0  0  0  0  0  0  0  0
    4.7932   -4.9087    0.0000 C   0  0  0  0  0  0  0  0  0  0  0  0
    4.1249   -5.3954    0.0000 O   0  0  0  0  0  0  0  0  0  0  0  0
    3.4567   -4.9087    0.0000 C   0  0  0  0  0  0  0  0  0  0  0  0
    2.6729   -5.1644    0.0000 O   0  0  0  0  0  0  0  0  0  0  0  0
    3.7124   -4.1249    0.0000 C   0  0  0  0  0  0  0  0  0  0  0  0
  1  2  1  0
  2  3  1  0
  3  4  2  0
  3 10  1  0
  4  5  1  0
  5  6  2  0
 12  5  1  6
  6  7  1  0
  7  8  1  0
  7 10  2  0
  8  9  1  0
 10 11  1  0
 12 13  1  0
 12 42  1  0
 13 14  2  0
 13 21  1  0
 14 15  1  0
 15 16  1  0
 15 19  2  0
 16 17  1  0
 17 18  1  0
 18 19  1  0
 19 20  1  0
 20 21  2  0
 21 22  1  0
 22 23  1  0
 22 37  1  0
 24 23  1  1
 24 25  1  0
 24 35  1  0
 26 25  1  0
 26 27  1  1
 26 32  1  0
 27 28  1  0
 28 29  1  0
 29 30  1  6
 29 31  1  0
 32 31  1  6
 32 33  1  0
 33 34  1  1
 33 35  1  0
 35 36  1  6
 37 38  1  0
 37 42  1  0
 38 39  1  0
 39 40  1  0
 40 41  2  0
 42 40  1  6
M  END
>  <Formula>  (397) 
C29H32O13

>  <FW>  (397) 
588.5566

>  <DSSTox_CID>  (397) 
3035

>  <NR-Aromatase>  (397) 
0

>  <NR-AR>  (397) 
0

>  <NR-AR-LBD>  (397) 
0

>  <NR-ER-LBD>  (397) 
0

>  <NR-AhR>  (397) 
0

>  <SR-ATAD5>  (397) 
0

>  <SR-HSE>  (397) 
1

>  <SR-MMP>  (397) 
0

>  <SR-p53>  (397) 
1

$$$$
NCGC00257277-01
     RDKit          2D

 38 39  0  0  0  0  0  0  0  0999 V2000
    5.4033   -3.0615    0.0000 C   0  0  0  0  0  0  0  0  0  0  0  0
    5.4033   -3.8870    0.0000 C   0  0  0  0  0  0  0  0  0  0  0  0
    6.1231   -4.2900    0.0000 C   0  0  0  0  0  0  0  0  0  0  0  0
    6.8237   -3.8870    0.0000 C   0  0  0  0  0  0  0  0  0  0  0  0
    6.8237   -3.0615    0.0000 C   0  0  0  0  0  0  0  0  0  0  0  0
    6.1231   -2.6489    0.0000 C   0  0  0  0  0  0  0  0  0  0  0  0
    4.6931   -2.6489    0.0000 C   0  0  0  0  0  0  0  0  0  0  0  0
    4.6931   -1.8235    0.0000 O   0  0  0  0  0  0  0  0  0  0  0  0
    3.9829   -3.0615    0.0000 N   0  0  0  0  0  0  0  0  0  0  0  0
    6.1231   -1.8235    0.0000 C   0  0  0  0  0  0  0  0  0  0  0  0
    5.4033   -1.4204    0.0000 O   0  0  0  0  0  0  0  0  0  0  0  0
    6.8237   -1.4204    0.0000 N   0  0  0  0  0  0  0  0  0  0  0  0
    7.5339   -1.8235    0.0000 C   0  0  0  0  0  0  0  0  0  0  0  0
    7.1308   -2.5433    0.0000 C   0  0  0  0  0  0  0  0  0  0  0  0
    8.2537   -2.2362    0.0000 C   0  0  0  0  0  0  0  0  0  0  0  0
    7.9562   -1.1229    0.0000 C   0  0  0  0  0  0  0  0  0  0  0  0
    8.7720   -1.1229    0.0000 S   0  0  0  0  0  0  0  0  0  0  0  0
    8.7720   -0.2975    0.0000 O   0  0  0  0  0  0  0  0  0  0  0  0
    8.7720   -1.9387    0.0000 O   0  0  0  0  0  0  0  0  0  0  0  0
    9.5974   -1.1229    0.0000 C   0  0  0  0  0  0  0  0  0  0  0  0
    7.5339   -2.6489    0.0000 I   0  0  0  0  0  0  0  0  0  0  0  0
    1.8523   -2.6489    0.0000 C   0  0  0  0  0  0  0  0  0  0  0  0
    1.8523   -1.8235    0.0000 C   0  0  0  0  0  0  0  0  0  0  0  0
    2.5529   -1.4204    0.0000 C   0  0  0  0  0  0  0  0  0  0  0  0
    3.2727   -1.8235    0.0000 C   0  0  0  0  0  0  0  0  0  0  0  0
    3.2727   -2.6489    0.0000 C   0  0  0  0  0  0  0  0  0  0  0  0
    2.5529   -3.0615    0.0000 C   0  0  0  0  0  0  0  0  0  0  0  0
    2.5529   -3.8870    0.0000 C   0  0  0  0  0  0  0  0  0  0  0  0
    1.1325   -1.4204    0.0000 C   0  0  0  0  0  0  0  0  0  0  0  0
    0.6910   -2.1018    0.0000 C   0  0  0  0  0  0  0  0  0  0  0  0
    0.3071   -0.8638    0.0000 F   0  0  0  0  0  0  0  0  0  0  0  0
    0.2496   -2.8024    0.0000 F   0  0  0  0  0  0  0  0  0  0  0  0
    1.3724   -2.5529    0.0000 F   0  0  0  0  0  0  0  0  0  0  0  0
    0.0000   -1.6603    0.0000 F   0  0  0  0  0  0  0  0  0  0  0  0
    1.5836   -0.6814    0.0000 C   0  0  0  0  0  0  0  0  0  0  0  0
    1.9771    0.0000    0.0000 F   0  0  0  0  0  0  0  0  0  0  0  0
    2.2650   -1.1037    0.0000 F   0  0  0  0  0  0  0  0  0  0  0  0
    0.8925   -0.2879    0.0000 F   0  0  0  0  0  0  0  0  0  0  0  0
  1  2  2  0
  1  6  1  0
  1  7  1  0
  2  3  1  0
  3  4  2  0
  4  5  1  0
  5  6  2  0
  5 21  1  0
  6 10  1  0
  7  8  2  0
  7  9  1  0
  9 26  1  0
 10 11  2  0
 10 12  1  0
 12 13  1  0
 13 14  1  0
 13 15  1  0
 13 16  1  0
 16 17  1  0
 17 18  2  0
 17 19  2  0
 17 20  1  0
 22 27  2  0
 22 23  1  0
 23 24  2  0
 23 29  1  0
 24 25  1  0
 25 26  2  0
 26 27  1  0
 27 28  1  0
 29 30  1  0
 29 31  1  0
 29 35  1  0
 30 32  1  0
 30 33  1  0
 30 34  1  0
 35 36  1  0
 35 37  1  0
 35 38  1  0
M  END
>  <Formula>  (398) 
C23H22F7IN2O4S

>  <FW>  (398) 
682.3901

>  <DSSTox_CID>  (398) 
27672

>  <NR-Aromatase>  (398) 
0

>  <NR-AR>  (398) 
0

>  <NR-AR-LBD>  (398) 
0

>  <NR-ER-LBD>  (398) 
0

>  <NR-AhR>  (398) 
0

>  <SR-ATAD5>  (398) 
0

>  <SR-HSE>  (398) 
1

>  <SR-MMP>  (398) 
1

>  <SR-p53>  (398) 
0

$$$$
NCGC00247731-01
     RDKit          2D

 24 27  0  0  1  0  0  0  0  0999 V2000
    2.1721   -1.2726    0.0000 C   0  0  0  0  0  0  0  0  0  0  0  0
    2.1721   -2.0922    0.0000 C   0  0  0  0  0  0  0  0  0  0  0  0
    1.4392   -0.8528    0.0000 C   0  0  0  0  0  0  0  0  0  0  0  0
    1.4392   -2.5186    0.0000 C   0  0  0  0  0  0  0  0  0  0  0  0
    0.7329   -1.2726    0.0000 C   0  0  0  0  0  0  0  0  0  0  0  0
    0.7329   -2.0922    0.0000 C   0  0  0  0  0  0  0  0  0  0  0  0
    3.6113   -1.2726    0.0000 C   0  0  0  0  0  0  0  0  0  0  0  0
    2.8784   -2.5186    0.0000 N   0  0  0  0  0  0  0  0  0  0  0  0
    3.6113   -2.0922    0.0000 C   0  0  0  0  0  0  0  0  0  0  0  0
    5.0572   -1.2726    0.0000 N   0  0  0  0  0  0  0  0  0  0  0  0
    4.3242   -2.5186    0.0000 C   0  0  0  0  0  0  0  0  0  0  0  0
    5.0572   -2.0922    0.0000 C   0  0  0  0  0  0  0  0  0  0  0  0
    4.3242   -3.3648    0.0000 C   0  0  0  0  0  0  0  0  0  0  0  0
    5.0572   -3.7579    0.0000 C   0  0  0  0  0  0  0  0  0  0  0  0
    5.7634   -2.5186    0.0000 C   0  0  0  0  0  0  0  0  0  0  0  0
    5.7634   -3.3648    0.0000 C   0  0  0  0  0  0  0  0  0  0  0  0
    3.9245   -0.6529    0.0000 C   0  0  0  0  0  0  0  0  0  0  0  0
    4.7374   -0.6529    0.0000 C   0  0  0  0  0  0  0  0  0  0  0  0
    6.3564   -2.5186    0.0000 C   0  0  0  0  0  0  0  0  0  0  0  0
    6.6629   -3.0250    0.0000 C   0  0  0  0  0  0  0  0  0  0  0  0
    5.9567   -0.7329    0.0000 C   0  0  0  0  0  0  0  0  0  0  0  0
    0.0000   -0.8528    0.0000 O   0  0  0  0  0  0  0  0  0  0  0  0
    0.0000    0.0000    0.0000 C   0  0  0  0  0  0  0  0  0  0  0  0
    2.5652   -3.8378    0.0000 Cl  0  0  0  0  0  0  0  0  0  0  0  0
  1  3  1  0
  1  7  1  0
  1  2  2  0
  2  4  1  0
  2  8  1  0
  3  5  2  0
  4  6  2  0
  5  6  1  0
  5 22  1  0
  7  9  2  0
  7 17  1  0
  8  9  1  0
  9 11  1  0
 10 12  1  0
 10 18  1  1
 10 21  1  0
 11 13  1  1
 11 12  1  0
 12 15  1  1
 14 13  1  6
 14 16  1  0
 14 21  1  0
 15 16  1  0
 15 19  1  1
 17 18  1  0
 19 20  1  0
 22 23  1  0
M  END
>  <Formula>  (399) 
C20H27ClN2O

>  <FW>  (399) 
346.8942 (310.4332+36.4609)

>  <DSSTox_CID>  (399) 
28803

>  <NR-Aromatase>  (399) 
0

>  <NR-AR>  (399) 
0

>  <NR-AR-LBD>  (399) 
0

>  <NR-ER>  (399) 
0

>  <NR-ER-LBD>  (399) 
0

>  <NR-PPAR-gamma>  (399) 
0

>  <SR-ARE>  (399) 
0

>  <SR-ATAD5>  (399) 
0

>  <SR-HSE>  (399) 
1

>  <SR-MMP>  (399) 
0

>  <SR-p53>  (399) 
0

$$$$
NCGC00247720-01
     RDKit          2D

 23 26  0  0  1  0  0  0  0  0999 V2000
    1.4401   -3.3352    0.0000 C   0  0  0  0  0  0  0  0  0  0  0  0
    1.4401   -2.4901    0.0000 C   0  0  0  0  0  0  0  0  0  0  0  0
    2.1451   -3.7403    0.0000 C   0  0  0  0  0  0  0  0  0  0  0  0
    0.7151   -2.0751    0.0000 C   0  0  0  0  0  0  0  0  0  0  0  0
    0.7151   -3.7403    0.0000 C   0  0  0  0  0  0  0  0  0  0  0  0
    0.2400   -2.8852    0.0000 O   0  0  0  0  0  0  0  0  0  0  0  0
    2.8552   -3.3152    0.0000 C   0  0  0  0  0  0  0  0  0  0  0  0
    2.1451   -2.0751    0.0000 C   0  0  0  0  0  0  0  0  0  0  0  0
    2.1451   -4.5653    0.0000 C   0  0  0  0  0  0  0  0  0  0  0  0
    2.8552   -2.4901    0.0000 C   0  0  0  0  0  0  0  0  0  0  0  0
    3.2552   -3.7003    0.0000 N   0  0  0  0  0  0  0  0  0  0  0  0
    1.4401   -4.1553    0.0000 C   0  0  0  0  0  0  0  0  0  0  0  0
    1.4401   -4.9803    0.0000 C   0  0  0  0  0  0  0  0  0  0  0  0
    0.7151   -4.5853    0.0000 C   0  0  0  0  0  0  0  0  0  0  0  0
    0.7151   -1.2601    0.0000 C   0  0  0  0  0  0  0  0  0  0  0  0
    3.0152   -4.1553    0.0000 C   0  0  0  0  0  0  0  0  0  0  0  0
    2.1451   -1.2601    0.0000 C   0  0  0  0  0  0  0  0  0  0  0  0
    1.4401   -0.8350    0.0000 C   0  0  0  0  0  0  0  0  0  0  0  0
    0.0200   -5.0003    0.0000 O   0  0  0  0  0  0  0  0  0  0  0  0
    0.0000   -0.8350    0.0000 O   0  0  0  0  0  0  0  0  0  0  0  0
    4.0303   -3.7003    0.0000 C   0  0  0  0  0  0  0  0  0  0  0  0
    0.0000    0.0000    0.0000 C   0  0  0  0  0  0  0  0  0  0  0  0
    3.5802   -1.6251    0.0000 Cl  0  0  0  0  0  0  0  0  0  0  0  0
  1  2  1  0
  1  3  1  0
  1  5  1  0
  1 12  1  1
  2  4  2  0
  2  8  1  0
  3  7  1  0
  3  9  1  6
  4 15  1  0
  4  6  1  0
  5  6  1  6
  5 14  1  0
  7 10  1  1
  7 11  1  0
  8 17  2  0
  8 10  1  0
  9 13  2  0
 11 16  1  0
 11 21  1  0
 12 16  1  0
 13 14  1  0
 14 19  1  6
 15 20  1  0
 15 18  2  0
 17 18  1  0
 20 22  1  0
M  END
>  <Formula>  (400) 
C18H22ClNO3

>  <FW>  (400) 
335.8252 (299.3642+36.4609)

>  <DSSTox_CID>  (400) 
28830

>  <NR-Aromatase>  (400) 
0

>  <NR-AR>  (400) 
0

>  <NR-AR-LBD>  (400) 
0

>  <NR-ER>  (400) 
0

>  <NR-ER-LBD>  (400) 
0

>  <NR-PPAR-gamma>  (400) 
0

>  <NR-AhR>  (400) 
0

>  <SR-ARE>  (400) 
1

>  <SR-ATAD5>  (400) 
0

>  <SR-HSE>  (400) 
1

>  <SR-MMP>  (400) 
0

>  <SR-p53>  (400) 
0

$$$$
NCGC00260082-01
     RDKit          2D

 54 57  0  0  1  0  0  0  0  0999 V2000
    9.2815   -3.5549    0.0000 N   0  0  0  0  0  0  0  0  0  0  0  0
    9.9973   -3.1423    0.0000 C   0  0  0  0  0  0  0  0  0  0  0  0
    9.2815   -4.3799    0.0000 C   0  0  0  0  0  0  0  0  0  0  0  0
    8.5656   -3.1423    0.0000 C   0  0  0  0  0  0  0  0  0  0  0  0
   10.7010   -3.5549    0.0000 C   0  0  0  0  0  0  0  0  0  0  0  0
    9.9973   -2.3173    0.0000 C   0  0  0  0  0  0  0  0  0  0  0  0
    9.9973   -4.7924    0.0000 C   0  0  0  0  0  0  0  0  0  0  0  0
    7.8498   -3.5549    0.0000 C   0  0  0  0  0  0  0  0  0  0  0  0
   10.7010   -4.3799    0.0000 C   0  0  0  0  0  0  0  0  0  0  0  0
   10.7010   -1.9170    0.0000 N   0  0  0  0  0  0  0  0  0  0  0  0
    9.2815   -1.9170    0.0000 O   0  0  0  0  0  0  0  0  0  0  0  0
    9.9973   -5.6174    0.0000 C   0  0  0  0  0  0  0  0  0  0  0  0
    7.1461   -3.1423    0.0000 C   0  0  0  0  0  0  0  0  0  0  0  0
    7.8498   -4.3799    0.0000 O   0  0  0  0  0  0  0  0  0  0  0  0
   11.4168   -4.7924    0.0000 C   0  0  0  0  0  0  0  0  0  0  0  0
   11.4168   -2.3173    0.0000 C   0  0  0  0  0  0  0  0  0  0  0  0
   10.7010   -6.0299    0.0000 C   0  0  0  0  0  0  0  0  0  0  0  0
    7.1461   -1.8077    0.0000 C   0  0  0  0  0  0  0  0  0  0  0  0
    6.4181   -3.5549    0.0000 N   0  0  0  0  0  0  0  0  0  0  0  0
   11.4168   -5.6174    0.0000 C   0  0  0  0  0  0  0  0  0  0  0  0
   11.8293   -1.6015    0.0000 C   0  0  0  0  0  0  0  0  0  0  0  0
   11.0043   -3.0332    0.0000 C   0  0  0  0  0  0  0  0  0  0  0  0
   12.1326   -2.7298    0.0000 C   0  0  0  0  0  0  0  0  0  0  0  0
    6.4181   -1.5045    0.0000 C   0  0  0  0  0  0  0  0  0  0  0  0
    5.7144   -3.1423    0.0000 C   0  0  0  0  0  0  0  0  0  0  0  0
    6.4181   -0.6794    0.0000 C   0  0  0  0  0  0  0  0  0  0  0  0
    5.7144   -1.9170    0.0000 C   0  0  0  0  0  0  0  0  0  0  0  0
    4.9987   -3.5549    0.0000 C   0  0  0  0  0  0  0  0  0  0  0  0
    5.7144   -2.3173    0.0000 O   0  0  0  0  0  0  0  0  0  0  0  0
    5.7144   -0.2669    0.0000 C   0  0  0  0  0  0  0  0  0  0  0  0
    4.9987   -1.5045    0.0000 C   0  0  0  0  0  0  0  0  0  0  0  0
    4.2828   -3.1423    0.0000 N   0  0  0  0  0  0  0  0  0  0  0  0
    4.9987   -4.3799    0.0000 C   0  0  0  0  0  0  0  0  0  0  0  0
    4.9987   -0.6794    0.0000 C   0  0  0  0  0  0  0  0  0  0  0  0
    3.5670   -3.5549    0.0000 C   0  0  0  0  0  0  0  0  0  0  0  0
    5.7144   -4.7924    0.0000 C   0  0  0  0  0  0  0  0  0  0  0  0
    2.8633   -3.1423    0.0000 C   0  0  0  0  0  0  0  0  0  0  0  0
    3.5670   -4.3799    0.0000 O   0  0  0  0  0  0  0  0  0  0  0  0
    5.7144   -5.6174    0.0000 N   0  0  0  0  0  0  0  0  0  0  0  0
    6.4181   -4.3799    0.0000 O   0  0  0  0  0  0  0  0  0  0  0  0
    2.1353   -3.5549    0.0000 N   0  0  0  0  0  0  0  0  0  0  0  0
    2.8633   -2.3173    0.0000 C   0  0  0  0  0  0  0  0  0  0  0  0
    1.4316   -3.1423    0.0000 C   0  0  0  0  0  0  0  0  0  0  0  0
    2.1353   -1.9170    0.0000 C   0  0  0  0  0  0  0  0  0  0  0  0
    1.4316   -2.3173    0.0000 C   0  0  0  0  0  0  0  0  0  0  0  0
    0.7158   -3.5549    0.0000 C   0  0  0  0  0  0  0  0  0  0  0  0
    0.7158   -1.9170    0.0000 C   0  0  0  0  0  0  0  0  0  0  0  0
    0.0000   -3.1423    0.0000 C   0  0  0  0  0  0  0  0  0  0  0  0
    0.0000   -2.3173    0.0000 C   0  0  0  0  0  0  0  0  0  0  0  0
    3.6883   -0.7279    0.0000 S   0  0  0  0  0  0  0  0  0  0  0  0
    3.6883    0.0000    0.0000 O   0  0  0  0  0  0  0  0  0  0  0  0
    3.6883   -1.4438    0.0000 O   0  0  0  0  0  0  0  0  0  0  0  0
    4.4041   -0.7279    0.0000 O   0  0  0  0  0  0  0  0  0  0  0  0
    2.9603   -0.7279    0.0000 C   0  0  0  0  0  0  0  0  0  0  0  0
  1  2  1  0
  1  3  1  0
  1  4  1  0
  2  5  1  0
  2  6  1  6
  7  3  1  6
  4  8  1  0
  9  5  1  6
  6 10  1  0
  6 11  2  0
  7 12  1  0
  7  9  1  0
  8 13  1  0
  8 14  1  1
  9 15  1  0
 10 16  1  0
 12 17  1  0
 13 18  1  1
 13 19  1  0
 15 20  1  0
 16 21  1  0
 16 22  1  0
 16 23  1  0
 17 20  1  0
 18 24  1  0
 19 25  1  0
 24 26  2  0
 24 27  1  0
 25 28  1  0
 25 29  2  0
 26 30  1  0
 27 31  2  0
 28 32  1  0
 28 33  1  6
 30 34  2  0
 31 34  1  0
 32 35  1  0
 33 36  1  0
 35 37  1  0
 35 38  2  0
 36 39  1  0
 36 40  2  0
 37 41  2  0
 37 42  1  0
 41 43  1  0
 42 44  2  0
 43 45  2  0
 43 46  1  0
 44 45  1  0
 45 47  1  0
 46 48  2  0
 47 49  2  0
 48 49  1  0
 50 51  2  0
 50 52  2  0
 50 53  1  0
 50 54  1  0
M  END
>  <Formula>  (401) 
C39H54N6O8S

>  <FW>  (401) 
766.9465 (670.8408+96.1057)

>  <DSSTox_CID>  (401) 
3835

>  <NR-AR>  (401) 
0

>  <SR-MMP>  (401) 
1

$$$$
NCGC00241107-01
     RDKit          2D

 38 40  0  0  0  0  0  0  0  0999 V2000
    2.3128   -0.4626    0.0000 C   0  0  0  0  0  0  0  0  0  0  0  0
    2.3128   -1.2952    0.0000 N   0  0  0  0  0  0  0  0  0  0  0  0
    1.5932   -0.0514    0.0000 C   0  0  0  0  0  0  0  0  0  0  0  0
    1.5932   -1.6961    0.0000 C   0  0  0  0  0  0  0  0  0  0  0  0
    0.8738   -0.4626    0.0000 N   0  0  0  0  0  0  0  0  0  0  0  0
    0.8738   -1.2952    0.0000 C   0  0  0  0  0  0  0  0  0  0  0  0
    3.0323   -1.6961    0.0000 C   0  0  0  0  0  0  0  0  0  0  0  0
    3.7416   -1.2952    0.0000 C   0  0  0  0  0  0  0  0  0  0  0  0
    4.4611   -1.6961    0.0000 C   0  0  0  0  0  0  0  0  0  0  0  0
    5.1704   -1.2952    0.0000 O   0  0  0  0  0  0  0  0  0  0  0  0
    5.8899   -1.6961    0.0000 C   0  0  0  0  0  0  0  0  0  0  0  0
    6.5991   -1.2952    0.0000 C   0  0  0  0  0  0  0  0  0  0  0  0
    5.8899   -2.5287    0.0000 C   0  0  0  0  0  0  0  0  0  0  0  0
    7.3187   -1.6961    0.0000 C   0  0  0  0  0  0  0  0  0  0  0  0
    6.5991   -2.9501    0.0000 C   0  0  0  0  0  0  0  0  0  0  0  0
    7.3187   -2.5287    0.0000 C   0  0  0  0  0  0  0  0  0  0  0  0
    5.1704   -2.9501    0.0000 O   0  0  0  0  0  0  0  0  0  0  0  0
    4.4611   -2.5287    0.0000 C   0  0  0  0  0  0  0  0  0  0  0  0
    8.0382   -1.2952    0.0000 N   0  0  0  0  0  0  0  0  0  0  0  0
    8.7578   -1.6961    0.0000 C   0  0  0  0  0  0  0  0  0  0  0  0
    8.0382   -2.9501    0.0000 C   0  0  0  0  0  0  0  0  0  0  0  0
    8.7578   -2.5287    0.0000 C   0  0  0  0  0  0  0  0  0  0  0  0
    8.0382   -3.7724    0.0000 N   0  0  0  0  0  0  0  0  0  0  0  0
    8.4596   -4.4817    0.0000 C   0  0  0  0  0  0  0  0  0  0  0  0
    9.2820   -4.4817    0.0000 C   0  0  0  0  0  0  0  0  0  0  0  0
    8.0485   -5.1909    0.0000 C   0  0  0  0  0  0  0  0  0  0  0  0
    9.7034   -5.1909    0.0000 C   0  0  0  0  0  0  0  0  0  0  0  0
    8.4699   -5.9208    0.0000 C   0  0  0  0  0  0  0  0  0  0  0  0
    9.2922   -5.9105    0.0000 C   0  0  0  0  0  0  0  0  0  0  0  0
    9.4773   -2.9501    0.0000 C   0  0  0  0  0  0  0  0  0  0  0  0
   10.2790   -2.7856    0.0000 N   0  0  0  0  0  0  0  0  0  0  0  0
    8.0588   -6.6402    0.0000 O   0  0  0  0  0  0  0  0  0  0  0  0
    9.7137   -6.6197    0.0000 Cl  0  0  0  0  0  0  0  0  0  0  0  0
    9.6931   -3.7519    0.0000 Cl  0  0  0  0  0  0  0  0  0  0  0  0
    7.2261   -6.6402    0.0000 C   0  0  0  0  0  0  0  0  0  0  0  0
    0.0000    0.0000    0.0000 C   0  0  0  0  0  0  0  0  0  0  0  0
    4.5947   -3.9780    0.0000 C   0  0  0  0  0  0  0  0  0  0  0  0
    5.3554   -3.9472    0.0000 O   0  0  0  0  0  0  0  0  0  0  0  0
  1  2  1  0
  1  3  1  0
  2  4  1  0
  2  7  1  0
  3  5  1  0
  4  6  1  0
  5  6  1  0
  5 36  1  0
  7  8  1  0
  8  9  1  0
  9 10  1  0
 10 11  1  0
 11 12  2  0
 11 13  1  0
 12 14  1  0
 13 15  2  0
 13 17  1  0
 14 19  2  0
 14 16  1  0
 15 16  1  0
 16 21  2  0
 17 18  1  0
 19 20  1  0
 20 22  2  0
 21 22  1  0
 21 23  1  0
 22 30  1  0
 23 24  1  0
 24 25  2  0
 24 26  1  0
 25 27  1  0
 25 34  1  0
 26 28  2  0
 27 29  2  0
 28 29  1  0
 28 32  1  0
 29 33  1  0
 30 31  3  0
 32 35  1  0
 37 38  1  0
M  END
>  <Formula>  (402) 
C27H33Cl2N5O4

>  <FW>  (402) 
562.4880 (530.4462+32.0419)

>  <DSSTox_CID>  (402) 
28977

>  <NR-AR>  (402) 
0

>  <SR-MMP>  (402) 
1

>  <SR-p53>  (402) 
1

$$$$
NCGC00181104-01
     RDKit          2D

 28 30  0  0  0  0  0  0  0  0999 V2000
    7.4295   -1.3190    0.0000 N   0  0  0  0  0  0  0  0  0  0  0  0
    2.8440   -0.4328    0.0000 C   0  0  0  0  0  0  0  0  0  0  0  0
    7.4295   -0.4946    0.0000 C   0  0  0  0  0  0  0  0  0  0  0  0
    2.8440   -1.2469    0.0000 N   0  0  0  0  0  0  0  0  0  0  0  0
    2.1330   -0.0309    0.0000 S   0  0  0  0  0  0  0  0  0  0  0  0
    8.1509   -0.1031    0.0000 S   0  0  0  0  0  0  0  0  0  0  0  0
    8.8722   -1.3190    0.0000 C   0  0  0  0  0  0  0  0  0  0  0  0
    1.4221   -1.2469    0.0000 C   0  0  0  0  0  0  0  0  0  0  0  0
    8.8722   -0.5152    0.0000 C   0  0  0  0  0  0  0  0  0  0  0  0
    1.4221   -0.4328    0.0000 C   0  0  0  0  0  0  0  0  0  0  0  0
    3.6066    0.0000    0.0000 C   0  0  0  0  0  0  0  0  0  0  0  0
    6.6567   -0.0206    0.0000 C   0  0  0  0  0  0  0  0  0  0  0  0
    4.3588   -0.4431    0.0000 C   0  0  0  0  0  0  0  0  0  0  0  0
    5.8735   -0.4637    0.0000 C   0  0  0  0  0  0  0  0  0  0  0  0
    5.1110    0.0000    0.0000 C   0  0  0  0  0  0  0  0  0  0  0  0
    6.6876   -1.7517    0.0000 C   0  0  0  0  0  0  0  0  0  0  0  0
    3.5963   -1.6693    0.0000 C   0  0  0  0  0  0  0  0  0  0  0  0
    9.5729   -1.7002    0.0000 C   0  0  0  0  0  0  0  0  0  0  0  0
    0.7213   -1.6281    0.0000 C   0  0  0  0  0  0  0  0  0  0  0  0
    0.7213   -0.0309    0.0000 C   0  0  0  0  0  0  0  0  0  0  0  0
    9.5729   -0.0824    0.0000 C   0  0  0  0  0  0  0  0  0  0  0  0
    6.6876   -2.5761    0.0000 C   0  0  0  0  0  0  0  0  0  0  0  0
    3.5963   -2.5555    0.0000 C   0  0  0  0  0  0  0  0  0  0  0  0
   10.3045   -1.2983    0.0000 C   0  0  0  0  0  0  0  0  0  0  0  0
    0.0000   -1.2469    0.0000 C   0  0  0  0  0  0  0  0  0  0  0  0
   10.3045   -0.4843    0.0000 C   0  0  0  0  0  0  0  0  0  0  0  0
    0.0000   -0.4328    0.0000 C   0  0  0  0  0  0  0  0  0  0  0  0
    8.2127   -2.0094    0.0000 I   0  0  0  0  0  0  0  0  0  0  0  0
  1  3  2  0
  1  7  1  0
  1 16  1  0
  2 11  2  3
  2  4  1  0
  2  5  1  0
  3  6  1  0
  3 12  1  0
  4  8  1  0
  4 17  1  0
  5 10  1  0
  6  9  1  0
  7  9  2  0
  7 18  1  0
  8 19  1  0
  8 10  2  0
  9 21  1  0
 10 20  1  0
 11 13  1  0
 12 14  2  3
 13 15  2  3
 14 15  1  0
 16 22  1  0
 17 23  1  0
 18 24  2  0
 19 25  2  0
 20 27  2  0
 21 26  2  0
 24 26  1  0
 25 27  1  0
M  CHG  2   1   1  28  -1
M  END
>  <Formula>  (403) 
C23H23IN2S2

>  <FW>  (403) 
518.4766 (391.5716+126.9050)

>  <DSSTox_CID>  (403) 
2955

>  <NR-AR>  (403) 
0

>  <NR-PPAR-gamma>  (403) 
0

>  <SR-MMP>  (403) 
1

$$$$
NCGC00254691-01
     RDKit          2D

 72 78  0  0  1  0  0  0  0  0999 V2000
    9.5643   -7.2699    0.0000 C   0  0  0  0  0  0  0  0  0  0  0  0
    9.5643   -8.0948    0.0000 C   0  0  0  0  0  0  0  0  0  0  0  0
    8.8166   -6.8703    0.0000 O   0  0  0  0  0  0  0  0  0  0  0  0
   10.2990   -7.6694    0.0000 O   0  0  0  0  0  0  0  0  0  0  0  0
    9.5772   -6.4707    0.0000 C   0  0  0  0  0  0  0  0  0  0  0  0
    8.8166   -8.4944    0.0000 C   0  0  0  0  0  0  0  0  0  0  0  0
    8.1077   -7.2699    0.0000 C   0  0  0  0  0  0  0  0  0  0  0  0
   11.0337   -7.2699    0.0000 C   0  0  0  0  0  0  0  0  0  0  0  0
   10.2990   -6.0195    0.0000 C   0  0  0  0  0  0  0  0  0  0  0  0
    8.1077   -8.0690    0.0000 C   0  0  0  0  0  0  0  0  0  0  0  0
    8.7780   -9.2936    0.0000 O   0  0  0  0  0  0  0  0  0  0  0  0
    7.3730   -6.8187    0.0000 C   0  0  0  0  0  0  0  0  0  0  0  0
   11.0337   -6.4707    0.0000 C   0  0  0  0  0  0  0  0  0  0  0  0
   11.7555   -7.6694    0.0000 C   0  0  0  0  0  0  0  0  0  0  0  0
    8.0690   -9.6931    0.0000 C   0  0  0  0  0  0  0  0  0  0  0  0
    6.6511   -7.2441    0.0000 C   0  0  0  0  0  0  0  0  0  0  0  0
   11.7555   -6.0195    0.0000 C   0  0  0  0  0  0  0  0  0  0  0  0
   11.7555   -8.4944    0.0000 C   0  0  0  0  0  0  0  0  0  0  0  0
   12.4645   -7.2699    0.0000 C   0  0  0  0  0  0  0  0  0  0  0  0
    8.0690  -10.4795    0.0000 C   0  0  0  0  0  0  0  0  0  0  0  0
    7.3730   -9.2678    0.0000 O   0  0  0  0  0  0  0  0  0  0  0  0
    5.9293   -6.8187    0.0000 C   0  0  0  0  0  0  0  0  0  0  0  0
   11.0337   -8.8940    0.0000 C   0  0  0  0  0  0  0  0  0  0  0  0
    7.3601  -10.8661    0.0000 C   0  0  0  0  0  0  0  0  0  0  0  0
    8.7651  -10.8790    0.0000 C   0  0  0  0  0  0  0  0  0  0  0  0
    5.1817   -7.2441    0.0000 C   0  0  0  0  0  0  0  0  0  0  0  0
    5.9293   -6.0195    0.0000 C   0  0  0  0  0  0  0  0  0  0  0  0
    7.3601  -11.6653    0.0000 C   0  0  0  0  0  0  0  0  0  0  0  0
    6.6382  -10.4666    0.0000 C   0  0  0  0  0  0  0  0  0  0  0  0
    7.3085  -10.1314    0.0000 O   0  0  0  0  0  0  0  0  0  0  0  0
    8.7651  -11.7040    0.0000 C   0  0  0  0  0  0  0  0  0  0  0  0
    4.3310   -6.6382    0.0000 O   0  0  0  0  0  0  0  0  0  0  0  0
    5.1817   -8.0690    0.0000 C   0  0  0  0  0  0  0  0  0  0  0  0
    5.9680  -11.6653    0.0000 O   0  0  0  0  0  0  0  0  0  0  0  0
    8.0561  -12.1035    0.0000 C   0  0  0  0  0  0  0  0  0  0  0  0
    5.9680  -10.8661    0.0000 C   0  0  0  0  0  0  0  0  0  0  0  0
    6.6382   -9.6931    0.0000 C   0  0  0  0  0  0  0  0  0  0  0  0
    9.4869  -12.1035    0.0000 C   0  0  0  0  0  0  0  0  0  0  0  0
    4.3310   -5.8004    0.0000 C   0  0  0  0  0  0  0  0  0  0  0  0
    5.9293   -8.4686    0.0000 C   0  0  0  0  0  0  0  0  0  0  0  0
    4.4857   -8.4944    0.0000 C   0  0  0  0  0  0  0  0  0  0  0  0
    8.0561  -12.8898    0.0000 O   0  0  0  0  0  0  0  0  0  0  0  0
    5.9293   -9.2678    0.0000 C   0  0  0  0  0  0  0  0  0  0  0  0
    5.0657   -5.4009    0.0000 C   0  0  0  0  0  0  0  0  0  0  0  0
    3.6220   -5.4009    0.0000 O   0  0  0  0  0  0  0  0  0  0  0  0
    5.0657   -4.5372    0.0000 C   0  0  0  0  0  0  0  0  0  0  0  0
    3.6220   -4.5372    0.0000 C   0  0  0  0  0  0  0  0  0  0  0  0
    4.3310   -4.1376    0.0000 C   0  0  0  0  0  0  0  0  0  0  0  0
    5.7875   -4.1376    0.0000 O   0  0  0  0  0  0  0  0  0  0  0  0
    2.9002   -4.1376    0.0000 C   0  0  0  0  0  0  0  0  0  0  0  0
    4.3310   -3.2869    0.0000 O   0  0  0  0  0  0  0  0  0  0  0  0
    6.4965   -4.5372    0.0000 C   0  0  0  0  0  0  0  0  0  0  0  0
    4.9626   -2.9131    0.0000 C   0  0  0  0  0  0  0  0  0  0  0  0
    5.7102   -3.3256    0.0000 C   0  0  0  0  0  0  0  0  0  0  0  0
    4.9626   -2.0495    0.0000 O   0  0  0  0  0  0  0  0  0  0  0  0
    6.4192   -2.9131    0.0000 C   0  0  0  0  0  0  0  0  0  0  0  0
    5.7102   -1.6499    0.0000 C   0  0  0  0  0  0  0  0  0  0  0  0
    6.4192   -2.0495    0.0000 C   0  0  0  0  0  0  0  0  0  0  0  0
    7.1281   -3.3256    0.0000 O   0  0  0  0  0  0  0  0  0  0  0  0
    5.7102   -0.8249    0.0000 C   0  0  0  0  0  0  0  0  0  0  0  0
    7.1281   -1.6499    0.0000 N   0  0  0  0  0  0  0  0  0  0  0  0
    7.8757   -2.9131    0.0000 C   0  0  0  0  0  0  0  0  0  0  0  0
    7.3601   -0.9281    0.0000 C   0  0  0  0  0  0  0  0  0  0  0  0
    2.1526   -0.8249    0.0000 C   0  0  0  0  0  0  0  0  0  0  0  0
    2.1526    0.0000    0.0000 O   0  0  0  0  0  0  0  0  0  0  0  0
    1.4437   -1.2374    0.0000 C   0  0  0  0  0  0  0  0  0  0  0  0
    2.8744   -1.2374    0.0000 O   0  0  0  0  0  0  0  0  0  0  0  0
    0.7218   -0.8249    0.0000 C   0  0  0  0  0  0  0  0  0  0  0  0
    1.4437   -2.0624    0.0000 C   0  0  0  0  0  0  0  0  0  0  0  0
    0.0000   -1.2374    0.0000 C   0  0  0  0  0  0  0  0  0  0  0  0
    0.7218   -2.4749    0.0000 C   0  0  0  0  0  0  0  0  0  0  0  0
    0.0000   -2.0624    0.0000 C   0  0  0  0  0  0  0  0  0  0  0  0
  1  2  1  1
  1  3  1  0
  1  4  1  0
  1  5  1  0
  6  2  1  1
  3  7  1  0
  8  4  1  1
  5  9  2  0
  6 10  1  0
  6 11  1  0
  7 12  1  1
  7 10  1  0
  8 13  1  0
  8 14  1  0
  9 13  1  0
 11 15  1  0
 12 16  1  0
 13 17  1  6
 14 18  1  0
 14 19  1  1
 15 20  1  0
 15 21  2  0
 16 22  2  0
 18 23  1  0
 20 24  1  0
 20 25  1  6
 22 26  1  0
 22 27  1  0
 24 28  1  0
 24 29  1  0
 24 30  1  6
 25 31  2  0
 26 32  1  6
 26 33  1  0
 28 34  1  1
 28 35  1  0
 29 36  1  0
 29 37  2  0
 31 38  1  0
 31 35  1  0
 39 32  1  6
 33 40  1  0
 33 41  1  6
 34 36  1  0
 35 42  1  1
 37 43  1  0
 39 44  1  0
 39 45  1  0
 40 43  2  0
 44 46  1  0
 45 47  1  0
 46 48  1  0
 46 49  1  1
 47 50  1  1
 47 48  1  0
 48 51  1  6
 49 52  1  0
 53 51  1  6
 53 54  1  0
 53 55  1  0
 54 56  1  0
 55 57  1  0
 56 58  1  0
 56 59  1  1
 57 60  1  1
 57 58  1  0
 58 61  1  6
 59 62  1  0
 61 63  1  0
 64 65  2  0
 64 66  1  0
 64 67  1  0
 66 68  2  0
 66 69  1  0
 68 70  1  0
 69 71  2  0
 70 72  2  0
 71 72  1  0
M  CHG  2  61   1  67  -1
M  END
>  <Formula>  (404) 
C56H81NO15

>  <FW>  (404) 
1008.2400 (887.1261+121.1139)

>  <DSSTox_CID>  (404) 
14566

>  <NR-AR>  (404) 
0

>  <NR-AhR>  (404) 
0

>  <SR-MMP>  (404) 
1

$$$$
NCGC00168772-01
     RDKit          2D

 33 40  0  0  1  0  0  0  0  0999 V2000
    4.7043   -1.7822    0.0000 C   0  0  0  0  0  0  0  0  0  0  0  0
    3.9045   -2.0593    0.0000 C   0  0  0  0  0  0  0  0  0  0  0  0
    3.1677   -1.7004    0.0000 O   0  0  0  0  0  0  0  0  0  0  0  0
    2.4120   -2.0404    0.0000 C   0  0  0  0  0  0  0  0  0  0  0  0
    2.7710   -1.3099    0.0000 C   0  0  0  0  0  0  0  0  0  0  0  0
    3.5896   -1.3225    0.0000 C   0  0  0  0  0  0  0  0  0  0  0  0
    4.3769   -1.0958    0.0000 O   0  0  0  0  0  0  0  0  0  0  0  0
    3.4700   -0.5038    0.0000 C   0  0  0  0  0  0  0  0  0  0  0  0
    4.1124    0.0000    0.0000 O   0  0  0  0  0  0  0  0  0  0  0  0
    2.1916   -2.8402    0.0000 N   0  0  0  0  0  0  0  0  0  0  0  0
    1.4233   -3.1677    0.0000 C   0  0  0  0  0  0  0  0  0  0  0  0
    1.5051   -3.9927    0.0000 C   0  0  0  0  0  0  0  0  0  0  0  0
    0.8250   -4.4587    0.0000 C   0  0  0  0  0  0  0  0  0  0  0  0
    0.0819   -4.1249    0.0000 C   0  0  0  0  0  0  0  0  0  0  0  0
    0.0000   -3.2937    0.0000 C   0  0  0  0  0  0  0  0  0  0  0  0
    0.6801   -2.8151    0.0000 C   0  0  0  0  0  0  0  0  0  0  0  0
    2.3112   -4.1754    0.0000 C   0  0  0  0  0  0  0  0  0  0  0  0
    2.7395   -3.4574    0.0000 C   0  0  0  0  0  0  0  0  0  0  0  0
    3.5645   -3.4763    0.0000 C   0  0  0  0  0  0  0  0  0  0  0  0
    3.9675   -4.1943    0.0000 C   0  0  0  0  0  0  0  0  0  0  0  0
    3.5456   -4.8996    0.0000 C   0  0  0  0  0  0  0  0  0  0  0  0
    2.7206   -4.8996    0.0000 C   0  0  0  0  0  0  0  0  0  0  0  0
    2.4498   -5.6742    0.0000 C   0  0  0  0  0  0  0  0  0  0  0  0
    1.6626   -5.9261    0.0000 O   0  0  0  0  0  0  0  0  0  0  0  0
    3.1173   -6.1654    0.0000 N   0  0  0  0  0  0  0  0  0  0  0  0
    3.7849   -5.6994    0.0000 C   0  0  0  0  0  0  0  0  0  0  0  0
    4.7799   -4.0242    0.0000 C   0  0  0  0  0  0  0  0  0  0  0  0
    4.8744   -3.2055    0.0000 C   0  0  0  0  0  0  0  0  0  0  0  0
    5.6301   -2.8780    0.0000 C   0  0  0  0  0  0  0  0  0  0  0  0
    6.2977   -3.3755    0.0000 C   0  0  0  0  0  0  0  0  0  0  0  0
    6.2095   -4.1943    0.0000 C   0  0  0  0  0  0  0  0  0  0  0  0
    5.4538   -4.5217    0.0000 C   0  0  0  0  0  0  0  0  0  0  0  0
    4.1249   -2.8654    0.0000 N   0  0  0  0  0  0  0  0  0  0  0  0
  2  1  1  6
  2  3  1  0
  2  6  1  0
  2 33  1  0
  3  4  1  0
  4  5  1  1
  4 10  1  0
  5  6  1  0
  6  7  1  1
  6  8  1  0
  8  9  1  0
 10 11  1  0
 10 18  1  0
 11 12  2  0
 11 16  1  0
 12 13  1  0
 12 17  1  0
 13 14  2  0
 14 15  1  0
 15 16  2  0
 17 18  1  0
 17 22  2  0
 18 19  2  0
 19 20  1  0
 19 33  1  0
 20 21  2  0
 20 27  1  0
 21 22  1  0
 21 26  1  0
 22 23  1  0
 23 24  2  0
 23 25  1  0
 25 26  1  0
 27 28  2  0
 27 32  1  0
 28 29  1  0
 28 33  1  0
 29 30  2  0
 30 31  1  0
 31 32  2  0
M  END
>  <Formula>  (405) 
C26H21N3O4

>  <FW>  (405) 
439.4626

>  <DSSTox_CID>  (405) 
26778

>  <NR-Aromatase>  (405) 
1

>  <NR-AR>  (405) 
0

>  <SR-MMP>  (405) 
1

>  <SR-p53>  (405) 
1

$$$$
NCGC00254209-01
     RDKit          2D

 41 46  0  0  0  0  0  0  0  0999 V2000
   12.1150   -4.7249    0.0000 C   0  0  0  0  0  0  0  0  0  0  0  0
   11.3518   -4.3977    0.0000 C   0  0  0  0  0  0  0  0  0  0  0  0
   11.2670   -3.5618    0.0000 N   0  0  0  0  0  0  0  0  0  0  0  0
   11.9333   -3.0772    0.0000 C   0  0  0  0  0  0  0  0  0  0  0  0
   11.8485   -2.2655    0.0000 C   0  0  0  0  0  0  0  0  0  0  0  0
   11.0852   -1.9263    0.0000 C   0  0  0  0  0  0  0  0  0  0  0  0
   11.7031   -1.3569    0.0000 C   0  0  0  0  0  0  0  0  0  0  0  0
   11.3639   -0.6179    0.0000 O   0  0  0  0  0  0  0  0  0  0  0  0
   10.5401   -0.7027    0.0000 C   0  0  0  0  0  0  0  0  0  0  0  0
    9.9222   -0.1575    0.0000 C   0  0  0  0  0  0  0  0  0  0  0  0
    9.1347   -0.4119    0.0000 C   0  0  0  0  0  0  0  0  0  0  0  0
    8.4200    0.0000    0.0000 C   0  0  0  0  0  0  0  0  0  0  0  0
    7.8142   -0.5694    0.0000 C   0  0  0  0  0  0  0  0  0  0  0  0
    8.1413   -1.3084    0.0000 N   0  0  0  0  0  0  0  0  0  0  0  0
    7.7294   -2.0353    0.0000 C   0  0  0  0  0  0  0  0  0  0  0  0
    8.1534   -2.7380    0.0000 O   0  0  0  0  0  0  0  0  0  0  0  0
    6.9056   -2.0353    0.0000 C   0  0  0  0  0  0  0  0  0  0  0  0
    6.4936   -2.7501    0.0000 C   0  0  0  0  0  0  0  0  0  0  0  0
    5.6820   -2.7501    0.0000 C   0  0  0  0  0  0  0  0  0  0  0  0
    5.2579   -2.0353    0.0000 C   0  0  0  0  0  0  0  0  0  0  0  0
    5.6699   -1.3205    0.0000 C   0  0  0  0  0  0  0  0  0  0  0  0
    6.4936   -1.3205    0.0000 C   0  0  0  0  0  0  0  0  0  0  0  0
    4.4341   -2.0353    0.0000 C   0  0  0  0  0  0  0  0  0  0  0  0
    4.0222   -1.3326    0.0000 C   0  0  0  0  0  0  0  0  0  0  0  0
    3.1863   -1.3326    0.0000 C   0  0  0  0  0  0  0  0  0  0  0  0
    2.7743   -2.0474    0.0000 C   0  0  0  0  0  0  0  0  0  0  0  0
    3.1984   -2.7622    0.0000 C   0  0  0  0  0  0  0  0  0  0  0  0
    4.0222   -2.7622    0.0000 C   0  0  0  0  0  0  0  0  0  0  0  0
    4.4462   -3.4770    0.0000 C   0  0  0  0  0  0  0  0  0  0  0  0
    1.9505   -2.0474    0.0000 C   0  0  0  0  0  0  0  0  0  0  0  0
    1.4538   -2.7259    0.0000 N   0  0  0  0  0  0  0  0  0  0  0  0
    0.6785   -2.4715    0.0000 N   0  0  0  0  0  0  0  0  0  0  0  0
    0.6785   -1.6355    0.0000 C   0  0  0  0  0  0  0  0  0  0  0  0
    0.0000   -1.1631    0.0000 C   0  0  0  0  0  0  0  0  0  0  0  0
    1.4538   -1.3811    0.0000 O   0  0  0  0  0  0  0  0  0  0  0  0
    8.9651   -1.2236    0.0000 C   0  0  0  0  0  0  0  0  0  0  0  0
    9.5830   -1.7688    0.0000 C   0  0  0  0  0  0  0  0  0  0  0  0
   10.3705   -1.5144    0.0000 C   0  0  0  0  0  0  0  0  0  0  0  0
   10.4311   -2.4109    0.0000 C   0  0  0  0  0  0  0  0  0  0  0  0
   10.5037   -3.2347    0.0000 C   0  0  0  0  0  0  0  0  0  0  0  0
    8.6622   -3.5134    0.0000 Cl  0  0  0  0  0  0  0  0  0  0  0  0
  1  2  1  0
  2  3  1  0
  3  4  1  0
  3 40  1  0
  4  5  1  0
  5  6  1  0
  6  7  1  0
  6 38  1  0
  6 39  1  0
  7  8  1  0
  8  9  1  0
  9 10  1  0
  9 38  2  0
 10 11  2  0
 11 12  1  0
 11 36  1  0
 12 13  1  0
 13 14  1  0
 14 15  1  0
 14 36  1  0
 15 16  2  0
 15 17  1  0
 17 18  2  0
 17 22  1  0
 18 19  1  0
 19 20  2  0
 20 21  1  0
 20 23  1  0
 21 22  2  0
 23 24  2  0
 23 28  1  0
 24 25  1  0
 25 26  2  0
 26 27  1  0
 26 30  1  0
 27 28  2  0
 28 29  1  0
 30 31  2  0
 30 35  1  0
 31 32  1  0
 32 33  2  0
 33 34  1  0
 33 35  1  0
 36 37  2  0
 37 38  1  0
 39 40  1  0
M  END
>  <Formula>  (406) 
C33H35ClN4O3

>  <FW>  (406) 
571.1090 (534.6481+36.4609)

>  <DSSTox_CID>  (406) 
27320

>  <NR-AR>  (406) 
0

>  <NR-ER-LBD>  (406) 
0

>  <SR-MMP>  (406) 
1

$$$$
NCGC00162178-02
     RDKit          2D

 41 46  0  0  1  0  0  0  0  0999 V2000
    7.3398   -4.0081    0.0000 N   0  0  0  0  0  0  0  0  0  0  0  0
    8.1038   -2.7556    0.0000 N   0  0  0  0  0  0  0  0  0  0  0  0
    7.3398   -3.1814    0.0000 C   0  0  0  0  0  0  0  0  0  0  0  0
    8.8178   -4.0081    0.0000 C   0  0  0  0  0  0  0  0  0  0  0  0
    8.1038   -4.3838    0.0000 C   0  0  0  0  0  0  0  0  0  0  0  0
    8.8178   -3.1814    0.0000 C   0  0  0  0  0  0  0  0  0  0  0  0
    9.5567   -4.2711    0.0000 S   0  0  0  0  0  0  0  0  0  0  0  0
   10.0201   -3.5947    0.0000 C   0  0  0  0  0  0  0  0  0  0  0  0
    9.6069   -2.8933    0.0000 C   0  0  0  0  0  0  0  0  0  0  0  0
   10.0201   -2.1794    0.0000 N   0  0  0  0  0  0  0  0  0  0  0  0
   10.8594   -3.5947    0.0000 N   0  0  0  0  0  0  0  0  0  0  0  0
   11.2727   -2.8933    0.0000 C   0  0  0  0  0  0  0  0  0  0  0  0
   10.8594   -2.1794    0.0000 C   0  0  0  0  0  0  0  0  0  0  0  0
    6.6384   -2.7556    0.0000 O   0  0  0  0  0  0  0  0  0  0  0  0
    8.1038   -5.2731    0.0000 O   0  0  0  0  0  0  0  0  0  0  0  0
   11.2727   -1.4654    0.0000 C   0  0  0  0  0  0  0  0  0  0  0  0
   10.8594   -0.7515    0.0000 C   0  0  0  0  0  0  0  0  0  0  0  0
   12.1119   -1.4654    0.0000 C   0  0  0  0  0  0  0  0  0  0  0  0
   11.2727    0.0000    0.0000 C   0  0  0  0  0  0  0  0  0  0  0  0
   12.5252   -0.7515    0.0000 C   0  0  0  0  0  0  0  0  0  0  0  0
   12.1119    0.0000    0.0000 C   0  0  0  0  0  0  0  0  0  0  0  0
    6.6384   -4.3838    0.0000 C   0  0  0  0  0  0  0  0  0  0  0  0
    5.9244   -4.0081    0.0000 C   0  0  0  0  0  0  0  0  0  0  0  0
    5.2230   -4.3838    0.0000 C   0  0  0  0  0  0  0  0  0  0  0  0
    4.5091   -4.0081    0.0000 C   0  0  0  0  0  0  0  0  0  0  0  0
    3.7951   -4.3838    0.0000 N   0  0  0  0  0  0  0  0  0  0  0  0
    3.0060   -4.0958    0.0000 C   0  0  0  0  0  0  0  0  0  0  0  0
    3.6699   -5.2731    0.0000 C   0  0  0  0  0  0  0  0  0  0  0  0
    2.4675   -4.6844    0.0000 C   0  0  0  0  0  0  0  0  0  0  0  0
    2.8808   -5.4359    0.0000 C   0  0  0  0  0  0  0  0  0  0  0  0
    1.6282   -6.1499    0.0000 O   0  0  0  0  0  0  0  0  0  0  0  0
    1.2525   -5.4359    0.0000 C   0  0  0  0  0  0  0  0  0  0  0  0
    1.6282   -4.6844    0.0000 C   0  0  0  0  0  0  0  0  0  0  0  0
    2.4675   -6.1499    0.0000 C   0  0  0  0  0  0  0  0  0  0  0  0
    0.4133   -5.4359    0.0000 C   0  0  0  0  0  0  0  0  0  0  0  0
    0.0000   -4.6844    0.0000 C   0  0  0  0  0  0  0  0  0  0  0  0
    0.4133   -3.9705    0.0000 C   0  0  0  0  0  0  0  0  0  0  0  0
    1.2525   -3.9705    0.0000 C   0  0  0  0  0  0  0  0  0  0  0  0
    1.6282   -3.2691    0.0000 O   0  0  0  0  0  0  0  0  0  0  0  0
    1.2525   -2.5552    0.0000 C   0  0  0  0  0  0  0  0  0  0  0  0
    5.4610   -5.8743    0.0000 Cl  0  0  0  0  0  0  0  0  0  0  0  0
  1  3  1  0
  1  5  1  0
  1 22  1  0
  2  3  1  0
  2  6  1  0
  3 14  2  0
  4  5  1  0
  4  6  2  0
  4  7  1  0
  5 15  2  0
  6  9  1  0
  7  8  1  0
  8  9  2  0
  8 11  1  0
  9 10  1  0
 10 13  2  0
 11 12  2  0
 12 13  1  0
 13 16  1  0
 16 17  2  0
 16 18  1  0
 17 19  1  0
 18 20  2  0
 19 21  2  0
 20 21  1  0
 22 23  1  0
 23 24  1  0
 24 25  1  0
 25 26  1  0
 26 27  1  0
 26 28  1  0
 29 27  1  6
 30 28  1  6
 29 30  1  0
 29 33  1  0
 30 34  1  0
 31 32  1  0
 31 34  1  0
 32 33  2  0
 32 35  1  0
 33 38  1  0
 35 36  2  0
 36 37  1  0
 37 38  2  0
 38 39  1  0
 39 40  1  0
M  END
>  <Formula>  (407) 
C30H30ClN5O4S

>  <FW>  (407) 
592.1083 (555.6474+36.4609)

>  <DSSTox_CID>  (407) 
28939

>  <NR-AR>  (407) 
0

>  <NR-ER-LBD>  (407) 
0

>  <NR-AhR>  (407) 
0

>  <SR-MMP>  (407) 
1

$$$$
NCGC00254091-01
     RDKit          2D

 43 46  0  0  1  0  0  0  0  0999 V2000
    4.4099   -7.0992    0.0000 Cl  0  0  0  0  0  0  0  0  0  0  0  0
    2.1432   -5.2033    0.0000 C   0  0  0  0  0  0  0  0  0  0  0  0
    2.1432   -6.0380    0.0000 C   0  0  0  0  0  0  0  0  0  0  0  0
    1.4219   -4.7912    0.0000 C   0  0  0  0  0  0  0  0  0  0  0  0
    1.4219   -6.4398    0.0000 C   0  0  0  0  0  0  0  0  0  0  0  0
    0.7110   -5.2033    0.0000 C   0  0  0  0  0  0  0  0  0  0  0  0
    0.7110   -6.0380    0.0000 C   0  0  0  0  0  0  0  0  0  0  0  0
    2.9262   -4.9664    0.0000 C   0  0  0  0  0  0  0  0  0  0  0  0
    3.4105   -5.6155    0.0000 C   0  0  0  0  0  0  0  0  0  0  0  0
    2.9262   -6.2852    0.0000 N   0  0  0  0  0  0  0  0  0  0  0  0
    0.0000   -4.7912    0.0000 Cl  0  0  0  0  0  0  0  0  0  0  0  0
    3.1838   -7.0683    0.0000 C   0  0  0  0  0  0  0  0  0  0  0  0
    2.6274   -7.6762    0.0000 C   0  0  0  0  0  0  0  0  0  0  0  0
    1.2674   -8.1193    0.0000 C   0  0  0  0  0  0  0  0  0  0  0  0
    1.5250   -8.9024    0.0000 C   0  0  0  0  0  0  0  0  0  0  0  0
    1.8237   -7.5113    0.0000 C   0  0  0  0  0  0  0  0  0  0  0  0
    2.3389   -9.0775    0.0000 C   0  0  0  0  0  0  0  0  0  0  0  0
    2.8850   -8.4593    0.0000 C   0  0  0  0  0  0  0  0  0  0  0  0
    3.6887   -8.6345    0.0000 O   0  0  0  0  0  0  0  0  0  0  0  0
    3.9463   -9.4176    0.0000 C   0  0  0  0  0  0  0  0  0  0  0  0
    0.9685   -9.5206    0.0000 O   0  0  0  0  0  0  0  0  0  0  0  0
    1.2261  -10.3037    0.0000 C   0  0  0  0  0  0  0  0  0  0  0  0
    4.2348   -5.6155    0.0000 O   0  0  0  0  0  0  0  0  0  0  0  0
    3.4929   -4.3688    0.0000 C   0  0  0  0  0  0  0  0  0  0  0  0
    2.6687   -4.1730    0.0000 C   0  0  0  0  0  0  0  0  0  0  0  0
    4.6470   -3.1838    0.0000 C   0  0  0  0  0  0  0  0  0  0  0  0
    3.8433   -2.9777    0.0000 C   0  0  0  0  0  0  0  0  0  0  0  0
    4.8633   -3.9772    0.0000 C   0  0  0  0  0  0  0  0  0  0  0  0
    3.2662   -3.5754    0.0000 C   0  0  0  0  0  0  0  0  0  0  0  0
    4.2863   -4.5645    0.0000 C   0  0  0  0  0  0  0  0  0  0  0  0
    4.6572   -5.2961    0.0000 Cl  0  0  0  0  0  0  0  0  0  0  0  0
    2.4626   -3.3693    0.0000 C   0  0  0  0  0  0  0  0  0  0  0  0
    2.2462   -2.5759    0.0000 N   0  0  0  0  0  0  0  0  0  0  0  0
    1.9062   -3.9669    0.0000 O   0  0  0  0  0  0  0  0  0  0  0  0
    1.4528   -2.3801    0.0000 C   0  0  0  0  0  0  0  0  0  0  0  0
    2.8232   -1.9886    0.0000 C   0  0  0  0  0  0  0  0  0  0  0  0
    2.5965   -1.1952    0.0000 C   0  0  0  0  0  0  0  0  0  0  0  0
    1.2261   -1.5868    0.0000 C   0  0  0  0  0  0  0  0  0  0  0  0
    0.1958   -0.5976    0.0000 N   0  0  0  0  0  0  0  0  0  0  0  0
    0.7727    0.0000    0.0000 C   0  0  0  0  0  0  0  0  0  0  0  0
    0.4224   -1.3910    0.0000 C   0  0  0  0  0  0  0  0  0  0  0  0
    1.5764   -0.1958    0.0000 C   0  0  0  0  0  0  0  0  0  0  0  0
    1.8032   -0.9892    0.0000 C   0  0  0  0  0  0  0  0  0  0  0  0
  2  4  2  0
  2  8  1  0
  2  3  1  0
  3  5  2  0
  3 10  1  0
  4  6  1  0
  5  7  1  0
  6  7  2  0
  6 11  1  0
  8  9  1  0
  8 24  1  0
  8 25  1  1
  9 10  1  0
  9 23  2  0
 10 12  1  0
 12 13  1  0
 13 16  2  0
 13 18  1  0
 14 15  2  0
 14 16  1  0
 15 17  1  0
 15 21  1  0
 17 18  2  0
 18 19  1  0
 19 20  1  0
 21 22  1  0
 24 29  2  0
 24 30  1  0
 26 27  2  0
 26 28  1  0
 27 29  1  0
 28 30  2  0
 29 32  1  0
 30 31  1  0
 32 33  1  0
 32 34  2  0
 33 35  1  0
 33 36  1  0
 35 38  1  0
 36 37  1  0
 38 41  2  0
 38 43  1  0
 39 40  2  0
 39 41  1  0
 40 42  1  0
 42 43  2  0
M  END
>  <Formula>  (408) 
C33H32Cl3N3O4

>  <FW>  (408) 
640.9839 (36.4609+604.5229)

>  <DSSTox_CID>  (408) 
27379

>  <NR-AR>  (408) 
0

>  <SR-ATAD5>  (408) 
0

>  <SR-HSE>  (408) 
1

>  <SR-MMP>  (408) 
1

$$$$
NCGC00015747-03
     RDKit          2D

 35 37  0  0  0  0  0  0  0  0999 V2000
    0.7134   -2.8877    0.0000 C   0  0  0  0  0  0  0  0  0  0  0  0
    0.0000   -2.4751    0.0000 C   0  0  0  0  0  0  0  0  0  0  0  0
    1.4352   -2.4751    0.0000 C   0  0  0  0  0  0  0  0  0  0  0  0
    1.4352   -1.6501    0.0000 C   0  0  0  0  0  0  0  0  0  0  0  0
    2.1486   -1.2376    0.0000 O   0  0  0  0  0  0  0  0  0  0  0  0
    0.7134   -1.2376    0.0000 O   0  0  0  0  0  0  0  0  0  0  0  0
    0.0000   -1.6501    0.0000 C   0  0  0  0  0  0  0  0  0  0  0  0
    2.1486   -2.8877    0.0000 C   0  0  0  0  0  0  0  0  0  0  0  0
    2.8619   -2.4751    0.0000 C   0  0  0  0  0  0  0  0  0  0  0  0
    3.5838   -2.8877    0.0000 C   0  0  0  0  0  0  0  0  0  0  0  0
    4.2971   -2.4751    0.0000 C   0  0  0  0  0  0  0  0  0  0  0  0
    4.2971   -1.6501    0.0000 C   0  0  0  0  0  0  0  0  0  0  0  0
    3.5838   -1.2376    0.0000 C   0  0  0  0  0  0  0  0  0  0  0  0
    3.5838   -0.4125    0.0000 N   0  0  0  0  0  0  0  0  0  0  0  0
    4.2971    0.0000    0.0000 O   0  0  0  0  0  0  0  0  0  0  0  0
    2.8619    0.0000    0.0000 O   0  0  0  0  0  0  0  0  0  0  0  0
    2.8619   -1.6501    0.0000 C   0  0  0  0  0  0  0  0  0  0  0  0
    2.1486   -3.7213    0.0000 C   0  0  0  0  0  0  0  0  0  0  0  0
    2.8619   -4.1338    0.0000 C   0  0  0  0  0  0  0  0  0  0  0  0
    2.8619   -4.9589    0.0000 O   0  0  0  0  0  0  0  0  0  0  0  0
    3.5838   -3.7213    0.0000 O   0  0  0  0  0  0  0  0  0  0  0  0
    4.2971   -4.1338    0.0000 C   0  0  0  0  0  0  0  0  0  0  0  0
    5.0104   -3.7213    0.0000 C   0  0  0  0  0  0  0  0  0  0  0  0
    5.7324   -4.1338    0.0000 N   0  0  0  0  0  0  0  0  0  0  0  0
    5.7324   -4.9589    0.0000 C   0  0  0  0  0  0  0  0  0  0  0  0
    6.4457   -3.7213    0.0000 C   0  0  0  0  0  0  0  0  0  0  0  0
    7.1590   -4.1338    0.0000 C   0  0  0  0  0  0  0  0  0  0  0  0
    7.8809   -3.7213    0.0000 C   0  0  0  0  0  0  0  0  0  0  0  0
    8.5943   -4.1338    0.0000 C   0  0  0  0  0  0  0  0  0  0  0  0
    8.5943   -4.9589    0.0000 C   0  0  0  0  0  0  0  0  0  0  0  0
    7.8809   -5.3714    0.0000 C   0  0  0  0  0  0  0  0  0  0  0  0
    7.1590   -4.9589    0.0000 C   0  0  0  0  0  0  0  0  0  0  0  0
    1.4352   -4.1338    0.0000 C   0  0  0  0  0  0  0  0  0  0  0  0
    1.4352   -4.9589    0.0000 C   0  0  0  0  0  0  0  0  0  0  0  0
    0.7134   -3.7213    0.0000 N   0  0  0  0  0  0  0  0  0  0  0  0
  1  2  1  0
  1  3  2  0
  1 35  1  0
  3  4  1  0
  3  8  1  0
  4  5  2  0
  4  6  1  0
  6  7  1  0
  8  9  1  0
  8 18  1  0
  9 10  2  0
  9 17  1  0
 10 11  1  0
 11 12  2  0
 12 13  1  0
 13 14  1  0
 13 17  2  0
 14 15  1  0
 14 16  2  0
 18 19  1  0
 18 33  2  0
 19 20  2  0
 19 21  1  0
 21 22  1  0
 22 23  1  0
 23 24  1  0
 24 25  1  0
 24 26  1  0
 26 27  1  0
 27 28  2  0
 27 32  1  0
 28 29  1  0
 29 30  2  0
 30 31  1  0
 31 32  2  0
 33 34  1  0
 33 35  1  0
M  CHG  2  14   1  15  -1
M  END
>  <Formula>  (409) 
C26H29N3O6

>  <FW>  (409) 
479.5250

>  <DSSTox_CID>  (409) 
3363

>  <NR-AR>  (409) 
0

>  <NR-AR-LBD>  (409) 
0

>  <NR-ER-LBD>  (409) 
0

>  <SR-MMP>  (409) 
1

$$$$
NCGC00015889-05
     RDKit          2D

 35 38  0  0  0  0  0  0  0  0999 V2000
    4.9396   -1.4871    0.0000 C   0  0  0  0  0  0  0  0  0  0  0  0
    5.4091   -0.8088    0.0000 C   0  0  0  0  0  0  0  0  0  0  0  0
    4.1482   -1.2262    0.0000 C   0  0  0  0  0  0  0  0  0  0  0  0
    5.3396   -2.1915    0.0000 C   0  0  0  0  0  0  0  0  0  0  0  0
    6.2353   -0.8088    0.0000 C   0  0  0  0  0  0  0  0  0  0  0  0
    4.9396   -0.1565    0.0000 S   0  0  0  0  0  0  0  0  0  0  0  0
    4.1482   -0.4000    0.0000 C   0  0  0  0  0  0  0  0  0  0  0  0
    3.4351   -1.6349    0.0000 C   0  0  0  0  0  0  0  0  0  0  0  0
    4.9396   -2.9046    0.0000 C   0  0  0  0  0  0  0  0  0  0  0  0
    6.1657   -2.1915    0.0000 O   0  0  0  0  0  0  0  0  0  0  0  0
    6.6353   -1.5305    0.0000 C   0  0  0  0  0  0  0  0  0  0  0  0
    6.6353   -0.1130    0.0000 C   0  0  0  0  0  0  0  0  0  0  0  0
    3.4351    0.0000    0.0000 C   0  0  0  0  0  0  0  0  0  0  0  0
    2.7306   -1.2262    0.0000 C   0  0  0  0  0  0  0  0  0  0  0  0
    4.1134   -2.9046    0.0000 C   0  0  0  0  0  0  0  0  0  0  0  0
    5.3396   -3.6264    0.0000 C   0  0  0  0  0  0  0  0  0  0  0  0
    7.4615   -1.5305    0.0000 C   0  0  0  0  0  0  0  0  0  0  0  0
    7.4615   -0.1130    0.0000 C   0  0  0  0  0  0  0  0  0  0  0  0
    2.7306   -0.4000    0.0000 C   0  0  0  0  0  0  0  0  0  0  0  0
    3.6872   -3.6264    0.0000 C   0  0  0  0  0  0  0  0  0  0  0  0
    4.9396   -4.3308    0.0000 C   0  0  0  0  0  0  0  0  0  0  0  0
    7.8702   -0.8088    0.0000 C   0  0  0  0  0  0  0  0  0  0  0  0
    2.0089    0.0000    0.0000 O   0  0  0  0  0  0  0  0  0  0  0  0
    4.1134   -4.3308    0.0000 C   0  0  0  0  0  0  0  0  0  0  0  0
    8.6963   -0.8088    0.0000 O   0  0  0  0  0  0  0  0  0  0  0  0
    3.6872   -5.0352    0.0000 O   0  0  0  0  0  0  0  0  0  0  0  0
    2.8698   -5.0352    0.0000 C   0  0  0  0  0  0  0  0  0  0  0  0
    2.4610   -4.3308    0.0000 C   0  0  0  0  0  0  0  0  0  0  0  0
    1.6436   -4.3308    0.0000 N   0  0  0  0  0  0  0  0  0  0  0  0
    1.2349   -5.0352    0.0000 C   0  0  0  0  0  0  0  0  0  0  0  0
    1.2349   -3.6264    0.0000 C   0  0  0  0  0  0  0  0  0  0  0  0
    0.4087   -5.0352    0.0000 C   0  0  0  0  0  0  0  0  0  0  0  0
    0.4087   -3.6264    0.0000 C   0  0  0  0  0  0  0  0  0  0  0  0
    0.0000   -4.3308    0.0000 C   0  0  0  0  0  0  0  0  0  0  0  0
    1.2349   -1.6349    0.0000 Cl  0  0  0  0  0  0  0  0  0  0  0  0
  1  2  2  0
  1  3  1  0
  1  4  1  0
  2  5  1  0
  2  6  1  0
  3  7  2  0
  3  8  1  0
  4  9  1  0
  4 10  2  0
  5 11  2  0
  5 12  1  0
  6  7  1  0
  7 13  1  0
  8 14  2  0
  9 15  2  0
  9 16  1  0
 11 17  1  0
 12 18  2  0
 13 19  2  0
 14 19  1  0
 15 20  1  0
 16 21  2  0
 17 22  2  0
 18 22  1  0
 19 23  1  0
 20 24  2  0
 21 24  1  0
 22 25  1  0
 24 26  1  0
 26 27  1  0
 27 28  1  0
 28 29  1  0
 29 30  1  0
 29 31  1  0
 30 32  1  0
 31 33  1  0
 32 34  1  0
 33 34  1  0
M  END
>  <Formula>  (410) 
C28H28ClNO4S

>  <FW>  (410) 
510.0442 (473.5833+36.4609)

>  <DSSTox_CID>  (410) 
14181

>  <NR-Aromatase>  (410) 
1

>  <NR-AR>  (410) 
0

>  <NR-AhR>  (410) 
0

>  <SR-MMP>  (410) 
1

>  <SR-p53>  (410) 
1

$$$$
NCGC00021305-05
     RDKit          2D

 65 68  0  0  1  0  0  0  0  0999 V2000
    3.5645   -2.8876    0.0000 C   0  0  0  0  0  0  0  0  0  0  0  0
    3.5645   -3.7126    0.0000 O   0  0  0  0  0  0  0  0  0  0  0  0
    2.8559   -2.4751    0.0000 C   0  0  0  0  0  0  0  0  0  0  0  0
    2.8559   -4.1145    0.0000 O   0  0  0  0  0  0  0  0  0  0  0  0
    2.1472   -2.8876    0.0000 N   0  0  0  0  0  0  0  0  0  0  0  0
    2.1472   -3.7126    0.0000 C   0  0  0  0  0  0  0  0  0  0  0  0
    4.2838   -2.4751    0.0000 O   0  0  0  0  0  0  0  0  0  0  0  0
    4.9819   -2.8876    0.0000 C   0  0  0  0  0  0  0  0  0  0  0  0
    4.9819   -3.7126    0.0000 C   0  0  0  0  0  0  0  0  0  0  0  0
    5.7011   -2.4751    0.0000 C   0  0  0  0  0  0  0  0  0  0  0  0
    6.4098   -2.8876    0.0000 C   0  0  0  0  0  0  0  0  0  0  0  0
    5.7011   -4.1145    0.0000 C   0  0  0  0  0  0  0  0  0  0  0  0
    2.8559   -1.6501    0.0000 C   0  0  0  0  0  0  0  0  0  0  0  0
    2.1472   -1.2375    0.0000 C   0  0  0  0  0  0  0  0  0  0  0  0
    1.4279   -2.4751    0.0000 C   0  0  0  0  0  0  0  0  0  0  0  0
    1.4279   -1.6501    0.0000 C   0  0  0  0  0  0  0  0  0  0  0  0
    5.7011   -1.6501    0.0000 C   0  0  0  0  0  0  0  0  0  0  0  0
    6.4098   -1.2375    0.0000 C   0  0  0  0  0  0  0  0  0  0  0  0
    7.1291   -1.6501    0.0000 C   0  0  0  0  0  0  0  0  0  0  0  0
    6.4098   -0.4125    0.0000 C   0  0  0  0  0  0  0  0  0  0  0  0
    7.1291    0.0000    0.0000 C   0  0  0  0  0  0  0  0  0  0  0  0
    7.8377   -1.2375    0.0000 C   0  0  0  0  0  0  0  0  0  0  0  0
    7.8377   -0.4125    0.0000 C   0  0  0  0  0  0  0  0  0  0  0  0
    2.1472   -5.3415    0.0000 O   0  0  0  0  0  0  0  0  0  0  0  0
    1.4279   -4.1145    0.0000 C   0  0  0  0  0  0  0  0  0  0  0  0
    1.4279   -4.9395    0.0000 C   0  0  0  0  0  0  0  0  0  0  0  0
    5.7011   -4.9395    0.0000 C   0  0  0  0  0  0  0  0  0  0  0  0
    4.9819   -5.3415    0.0000 C   0  0  0  0  0  0  0  0  0  0  0  0
    2.1366   -6.1665    0.0000 C   0  0  0  0  0  0  0  0  0  0  0  0
    1.4279   -6.5896    0.0000 C   0  0  0  0  0  0  0  0  0  0  0  0
    0.7192   -5.3415    0.0000 C   0  0  0  0  0  0  0  0  0  0  0  0
    0.7192   -6.1665    0.0000 C   0  0  0  0  0  0  0  0  0  0  0  0
    2.8559   -6.5896    0.0000 C   0  0  0  0  0  0  0  0  0  0  0  0
    6.4098   -5.3415    0.0000 C   0  0  0  0  0  0  0  0  0  0  0  0
    6.4098   -6.1665    0.0000 C   0  0  0  0  0  0  0  0  0  0  0  0
    5.7011   -6.5896    0.0000 C   0  0  0  0  0  0  0  0  0  0  0  0
    2.8559   -7.4147    0.0000 C   0  0  0  0  0  0  0  0  0  0  0  0
    4.2838   -7.4147    0.0000 C   0  0  0  0  0  0  0  0  0  0  0  0
    3.5751   -7.8271    0.0000 C   0  0  0  0  0  0  0  0  0  0  0  0
    7.1291   -6.5896    0.0000 C   0  0  0  0  0  0  0  0  0  0  0  0
    7.1291   -7.4147    0.0000 C   0  0  0  0  0  0  0  0  0  0  0  0
    6.4098   -7.8166    0.0000 O   0  0  0  0  0  0  0  0  0  0  0  0
    3.5751   -8.6416    0.0000 C   0  0  0  0  0  0  0  0  0  0  0  0
    4.2838   -9.0541    0.0000 C   0  0  0  0  0  0  0  0  0  0  0  0
    6.4098   -8.6416    0.0000 C   0  0  0  0  0  0  0  0  0  0  0  0
    7.8377   -7.8166    0.0000 C   0  0  0  0  0  0  0  0  0  0  0  0
    7.8377   -8.6416    0.0000 C   0  0  0  0  0  0  0  0  0  0  0  0
    7.1291   -9.0541    0.0000 C   0  0  0  0  0  0  0  0  0  0  0  0
    5.7011   -9.8792    0.0000 C   0  0  0  0  0  0  0  0  0  0  0  0
    4.9819  -10.2916    0.0000 C   0  0  0  0  0  0  0  0  0  0  0  0
    4.2838   -9.8792    0.0000 C   0  0  0  0  0  0  0  0  0  0  0  0
    6.7377   -9.8792    0.0000 C   0  0  0  0  0  0  0  0  0  0  0  0
    8.5570   -7.4147    0.0000 O   0  0  0  0  0  0  0  0  0  0  0  0
    7.8377   -6.1665    0.0000 O   0  0  0  0  0  0  0  0  0  0  0  0
    8.5570   -9.0541    0.0000 C   0  0  0  0  0  0  0  0  0  0  0  0
    7.1820  -10.5772    0.0000 C   0  0  0  0  0  0  0  0  0  0  0  0
    2.1472   -7.8271    0.0000 O   0  0  0  0  0  0  0  0  0  0  0  0
    2.1472   -8.6522    0.0000 C   0  0  0  0  0  0  0  0  0  0  0  0
    6.4098   -3.7126    0.0000 O   0  0  0  0  0  0  0  0  0  0  0  0
    0.7192   -4.5271    0.0000 O   0  0  0  0  0  0  0  0  0  0  0  0
    0.7192   -3.7020    0.0000 O   0  0  0  0  0  0  0  0  0  0  0  0
    8.5570   -1.6501    0.0000 O   0  0  0  0  0  0  0  0  0  0  0  0
    8.5570   -0.0106    0.0000 O   0  0  0  0  0  0  0  0  0  0  0  0
    0.0000   -4.9395    0.0000 C   0  0  0  0  0  0  0  0  0  0  0  0
    8.5570   -2.4751    0.0000 C   0  0  0  0  0  0  0  0  0  0  0  0
  1  3  1  0
  1  7  1  0
  1  2  2  0
  3 13  1  1
  3  5  1  0
  4  6  2  0
  5  6  1  0
  5 15  1  0
  6 25  1  0
  7  8  1  0
  8 10  1  0
  8  9  1  6
  9 12  1  0
 10 17  1  0
 10 11  1  1
 12 27  1  0
 12 59  2  0
 13 14  1  0
 14 16  1  0
 15 16  1  0
 18 17  1  6
 18 20  1  0
 18 19  1  0
 19 22  1  0
 20 21  1  0
 21 23  1  0
 22 23  1  0
 22 62  1  6
 23 63  1  1
 24 26  1  0
 24 29  1  0
 25 26  1  0
 25 61  2  0
 26 31  1  0
 26 60  1  1
 27 34  1  0
 27 28  1  1
 29 30  1  6
 29 33  1  0
 30 32  1  0
 31 32  1  0
 31 64  1  1
 33 37  1  0
 34 35  2  0
 35 40  1  0
 35 36  1  0
 37 39  1  0
 37 57  1  1
 38 39  1  0
 39 43  2  0
 40 41  1  0
 40 54  1  1
 41 46  1  0
 41 42  1  6
 42 45  1  0
 43 44  1  0
 44 51  2  0
 46 47  1  0
 46 53  2  0
 47 48  1  0
 47 55  1  6
 48 52  1  0
 49 50  2  0
 49 52  1  0
 50 51  1  0
 52 56  1  6
 57 58  1  0
 62 65  1  0
M  END
>  <Formula>  (411) 
C51H79NO13

>  <FW>  (411) 
914.1719

>  <DSSTox_CID>  (411) 
3582

>  <NR-Aromatase>  (411) 
1

>  <NR-AR>  (411) 
0

>  <NR-AhR>  (411) 
0

>  <SR-MMP>  (411) 
1

$$$$
NCGC00016447-01
     RDKit          2D

 38 43  0  0  1  0  0  0  0  0999 V2000
    7.2251   -4.2517    0.0000 C   0  0  0  0  0  0  0  0  0  0  0  0
    7.2251   -3.4366    0.0000 C   0  0  0  0  0  0  0  0  0  0  0  0
    5.0575   -4.6408    0.0000 C   0  0  0  0  0  0  0  0  0  0  0  0
    6.5026   -4.6592    0.0000 C   0  0  0  0  0  0  0  0  0  0  0  0
    5.0575   -5.4929    0.0000 C   0  0  0  0  0  0  0  0  0  0  0  0
    5.7615   -4.2517    0.0000 C   0  0  0  0  0  0  0  0  0  0  0  0
    7.9939   -3.1772    0.0000 C   0  0  0  0  0  0  0  0  0  0  0  0
    8.2533   -2.3991    0.0000 C   0  0  0  0  0  0  0  0  0  0  0  0
    4.3628   -5.8727    0.0000 C   0  0  0  0  0  0  0  0  0  0  0  0
    7.9939   -4.5110    0.0000 C   0  0  0  0  0  0  0  0  0  0  0  0
    6.5026   -3.0105    0.0000 C   0  0  0  0  0  0  0  0  0  0  0  0
    7.6605   -1.8156    0.0000 C   0  0  0  0  0  0  0  0  0  0  0  0
    8.6887   -0.7966    0.0000 C   0  0  0  0  0  0  0  0  0  0  0  0
    9.0314   -2.1861    0.0000 C   0  0  0  0  0  0  0  0  0  0  0  0
    7.8735   -1.0282    0.0000 O   0  0  0  0  0  0  0  0  0  0  0  0
    5.7615   -3.4366    0.0000 C   0  0  0  0  0  0  0  0  0  0  0  0
    2.9086   -5.8820    0.0000 O   0  0  0  0  0  0  0  0  0  0  0  0
    4.3628   -4.2517    0.0000 C   0  0  0  0  0  0  0  0  0  0  0  0
    8.4941   -3.8441    0.0000 C   0  0  0  0  0  0  0  0  0  0  0  0
    6.5026   -5.4837    0.0000 C   0  0  0  0  0  0  0  0  0  0  0  0
    9.2630   -1.3894    0.0000 C   0  0  0  0  0  0  0  0  0  0  0  0
    5.7615   -5.8727    0.0000 C   0  0  0  0  0  0  0  0  0  0  0  0
    3.6403   -5.4837    0.0000 C   0  0  0  0  0  0  0  0  0  0  0  0
    8.9295    0.0000    0.0000 O   0  0  0  0  0  0  0  0  0  0  0  0
    7.2251   -5.0668    0.0000 O   0  0  0  0  0  0  0  0  0  0  0  0
    3.6403   -4.6592    0.0000 C   0  0  0  0  0  0  0  0  0  0  0  0
    7.2251   -2.6122    0.0000 C   0  0  0  0  0  0  0  0  0  0  0  0
    5.0575   -3.8256    0.0000 C   0  0  0  0  0  0  0  0  0  0  0  0
    2.1861   -5.4837    0.0000 C   0  0  0  0  0  0  0  0  0  0  0  0
    1.4913   -5.8820    0.0000 C   0  0  0  0  0  0  0  0  0  0  0  0
    2.1861   -4.6592    0.0000 O   0  0  0  0  0  0  0  0  0  0  0  0
    0.7689   -5.4837    0.0000 C   0  0  0  0  0  0  0  0  0  0  0  0
    1.4913   -4.2332    0.0000 C   0  0  0  0  0  0  0  0  0  0  0  0
    0.7689   -4.6408    0.0000 C   0  0  0  0  0  0  0  0  0  0  0  0
    1.4728   -6.7805    0.0000 O   0  0  0  0  0  0  0  0  0  0  0  0
    0.0000   -5.9097    0.0000 O   0  0  0  0  0  0  0  0  0  0  0  0
    0.0093   -4.1869    0.0000 O   0  0  0  0  0  0  0  0  0  0  0  0
    1.5006   -3.3254    0.0000 C   0  0  0  0  0  0  0  0  0  0  0  0
  1  2  1  0
  1  4  1  0
  1 10  1  0
  1 25  1  1
  2  7  1  0
  2 11  1  0
  2 27  1  1
  3  6  1  0
  3 18  1  0
  3 28  1  1
  3  5  1  0
  4  6  1  0
  4 20  1  6
  5 22  1  0
  5  9  2  0
  6 16  1  1
  7  8  1  0
  7 19  1  1
  8 12  2  0
  8 14  1  0
  9 23  1  0
 10 19  1  0
 11 16  1  0
 12 15  1  0
 13 21  1  0
 13 24  2  0
 13 15  1  0
 14 21  2  0
 23 17  1  1
 29 17  1  1
 18 26  1  0
 20 22  1  0
 23 26  1  0
 29 30  1  0
 29 31  1  0
 30 32  1  0
 30 35  1  6
 31 33  1  0
 32 34  1  0
 32 36  1  6
 33 34  1  0
 33 38  1  6
 34 37  1  1
M  END
>  <Formula>  (412) 
C30H42O8

>  <FW>  (412) 
530.6497

>  <DSSTox_CID>  (412) 
3532

>  <NR-AhR>  (412) 
0

>  <SR-MMP>  (412) 
1

>  <SR-p53>  (412) 
0

$$$$
NCGC00163697-01
     RDKit          2D

 83 90  0  0  1  0  0  0  0  0999 V2000
    9.6802   -2.6809    0.0000 C   0  0  0  0  0  0  0  0  0  0  0  0
   10.3760   -3.0493    0.0000 C   0  0  0  0  0  0  0  0  0  0  0  0
   11.0513   -1.8624    0.0000 C   0  0  0  0  0  0  0  0  0  0  0  0
   11.0513   -2.6809    0.0000 C   0  0  0  0  0  0  0  0  0  0  0  0
    8.3090   -2.6809    0.0000 C   0  0  0  0  0  0  0  0  0  0  0  0
    9.0048   -3.0493    0.0000 C   0  0  0  0  0  0  0  0  0  0  0  0
    7.6336   -3.0493    0.0000 C   0  0  0  0  0  0  0  0  0  0  0  0
    9.6802   -1.8624    0.0000 C   0  0  0  0  0  0  0  0  0  0  0  0
    6.9173   -2.6809    0.0000 C   0  0  0  0  0  0  0  0  0  0  0  0
    6.9173   -1.8624    0.0000 C   0  0  0  0  0  0  0  0  0  0  0  0
    8.3090   -1.8624    0.0000 C   0  0  0  0  0  0  0  0  0  0  0  0
   10.3760   -1.4530    0.0000 C   0  0  0  0  0  0  0  0  0  0  0  0
    9.0048   -1.4530    0.0000 C   0  0  0  0  0  0  0  0  0  0  0  0
    7.6336   -1.4530    0.0000 C   0  0  0  0  0  0  0  0  0  0  0  0
   10.3760   -3.8884    0.0000 O   0  0  0  0  0  0  0  0  0  0  0  0
    9.0048   -3.8884    0.0000 O   0  0  0  0  0  0  0  0  0  0  0  0
    7.6336   -3.8884    0.0000 O   0  0  0  0  0  0  0  0  0  0  0  0
    6.2215   -1.4326    0.0000 O   0  0  0  0  0  0  0  0  0  0  0  0
    6.2215   -3.1107    0.0000 C   0  0  0  0  0  0  0  0  0  0  0  0
   12.4839   -1.8624    0.0000 C   0  0  0  0  0  0  0  0  0  0  0  0
   12.4839   -2.6809    0.0000 O   0  0  0  0  0  0  0  0  0  0  0  0
   11.7676   -1.4326    0.0000 C   0  0  0  0  0  0  0  0  0  0  0  0
   13.9165   -1.8624    0.0000 C   0  0  0  0  0  0  0  0  0  0  0  0
   13.9165   -2.6809    0.0000 O   0  0  0  0  0  0  0  0  0  0  0  0
   13.2002   -1.4326    0.0000 C   0  0  0  0  0  0  0  0  0  0  0  0
   14.6328   -1.4326    0.0000 C   0  0  0  0  0  0  0  0  0  0  0  0
   11.7676   -0.6140    0.0000 O   0  0  0  0  0  0  0  0  0  0  0  0
   13.2002   -0.6140    0.0000 O   0  0  0  0  0  0  0  0  0  0  0  0
   12.4839   -0.1842    0.0000 C   0  0  0  0  0  0  0  0  0  0  0  0
   17.6003   -5.1778    0.0000 O   0  0  0  0  0  0  0  0  0  0  0  0
   17.6003   -4.3591    0.0000 C   0  0  0  0  0  0  0  0  0  0  0  0
   18.3166   -5.6076    0.0000 C   0  0  0  0  0  0  0  0  0  0  0  0
   18.2961   -3.9498    0.0000 C   0  0  0  0  0  0  0  0  0  0  0  0
   19.0329   -5.1778    0.0000 C   0  0  0  0  0  0  0  0  0  0  0  0
   19.0124   -4.3591    0.0000 C   0  0  0  0  0  0  0  0  0  0  0  0
   18.3166   -6.4261    0.0000 C   0  0  0  0  0  0  0  0  0  0  0  0
   16.8635   -3.9498    0.0000 O   0  0  0  0  0  0  0  0  0  0  0  0
   19.8515   -4.3591    0.0000 O   0  0  0  0  0  0  0  0  0  0  0  0
   19.7492   -5.5871    0.0000 O   0  0  0  0  0  0  0  0  0  0  0  0
   19.4422   -3.6429    0.0000 C   0  0  0  0  0  0  0  0  0  0  0  0
   19.7492   -6.4261    0.0000 C   0  0  0  0  0  0  0  0  0  0  0  0
   19.0329   -6.8355    0.0000 O   0  0  0  0  0  0  0  0  0  0  0  0
   20.4654   -6.8355    0.0000 C   0  0  0  0  0  0  0  0  0  0  0  0
   14.7147   -5.1982    0.0000 O   0  0  0  0  0  0  0  0  0  0  0  0
   14.7147   -4.3591    0.0000 C   0  0  0  0  0  0  0  0  0  0  0  0
   15.4514   -5.6076    0.0000 C   0  0  0  0  0  0  0  0  0  0  0  0
   15.4310   -3.9498    0.0000 C   0  0  0  0  0  0  0  0  0  0  0  0
   16.1677   -5.1982    0.0000 C   0  0  0  0  0  0  0  0  0  0  0  0
   16.1677   -4.3591    0.0000 C   0  0  0  0  0  0  0  0  0  0  0  0
   15.4514   -6.4466    0.0000 C   0  0  0  0  0  0  0  0  0  0  0  0
   13.9984   -3.9498    0.0000 O   0  0  0  0  0  0  0  0  0  0  0  0
   16.8840   -5.6076    0.0000 O   0  0  0  0  0  0  0  0  0  0  0  0
   11.8495   -5.1982    0.0000 O   0  0  0  0  0  0  0  0  0  0  0  0
   11.8495   -4.3796    0.0000 C   0  0  0  0  0  0  0  0  0  0  0  0
   12.5658   -5.6280    0.0000 C   0  0  0  0  0  0  0  0  0  0  0  0
   12.5658   -3.9498    0.0000 C   0  0  0  0  0  0  0  0  0  0  0  0
   13.2821   -5.1982    0.0000 C   0  0  0  0  0  0  0  0  0  0  0  0
   13.2821   -4.3796    0.0000 C   0  0  0  0  0  0  0  0  0  0  0  0
   12.5658   -6.4671    0.0000 C   0  0  0  0  0  0  0  0  0  0  0  0
   11.1332   -3.9703    0.0000 O   0  0  0  0  0  0  0  0  0  0  0  0
   14.0189   -5.6076    0.0000 O   0  0  0  0  0  0  0  0  0  0  0  0
    4.9731   -0.7163    0.0000 O   0  0  0  0  0  0  0  0  0  0  0  0
    5.3824   -1.4326    0.0000 C   0  0  0  0  0  0  0  0  0  0  0  0
    4.1340   -0.7163    0.0000 C   0  0  0  0  0  0  0  0  0  0  0  0
    4.9731   -2.1489    0.0000 C   0  0  0  0  0  0  0  0  0  0  0  0
    3.7247   -1.4326    0.0000 C   0  0  0  0  0  0  0  0  0  0  0  0
    4.1340   -2.1489    0.0000 C   0  0  0  0  0  0  0  0  0  0  0  0
    3.7247    0.0000    0.0000 C   0  0  0  0  0  0  0  0  0  0  0  0
    3.7247   -2.8651    0.0000 O   0  0  0  0  0  0  0  0  0  0  0  0
    2.9061   -1.4326    0.0000 O   0  0  0  0  0  0  0  0  0  0  0  0
    2.4968   -2.1489    0.0000 O   0  0  0  0  0  0  0  0  0  0  0  0
    2.9061   -2.8651    0.0000 C   0  0  0  0  0  0  0  0  0  0  0  0
    1.6577   -2.1489    0.0000 C   0  0  0  0  0  0  0  0  0  0  0  0
    2.4968   -3.5815    0.0000 C   0  0  0  0  0  0  0  0  0  0  0  0
    1.2484   -2.8651    0.0000 C   0  0  0  0  0  0  0  0  0  0  0  0
    1.6577   -3.5815    0.0000 C   0  0  0  0  0  0  0  0  0  0  0  0
    1.2484   -1.4326    0.0000 C   0  0  0  0  0  0  0  0  0  0  0  0
    1.2484   -4.3182    0.0000 O   0  0  0  0  0  0  0  0  0  0  0  0
    0.4093   -2.8651    0.0000 O   0  0  0  0  0  0  0  0  0  0  0  0
    0.0000   -2.1489    0.0000 C   0  0  0  0  0  0  0  0  0  0  0  0
    2.4968   -0.7163    0.0000 C   0  0  0  0  0  0  0  0  0  0  0  0
    2.9061    0.0000    0.0000 O   0  0  0  0  0  0  0  0  0  0  0  0
    1.6577   -0.7163    0.0000 O   0  0  0  0  0  0  0  0  0  0  0  0
  1  2  1  0
  1  6  1  0
  1  8  2  0
  2  4  1  0
  2 15  2  0
  3 12  1  1
  3 22  1  0
  3  4  1  0
  4 60  1  6
  5  6  2  0
  5  7  1  0
  5 11  1  0
  6 16  1  0
  7  9  2  0
  7 17  1  0
  8 12  1  0
  8 13  1  0
  9 10  1  0
  9 19  1  0
 10 14  2  0
 10 18  1  0
 11 13  2  0
 11 14  1  0
 63 18  1  1
 20 22  1  0
 20 25  1  0
 20 21  2  0
 22 27  1  6
 23 25  1  0
 23 26  1  1
 23 24  1  0
 25 28  1  1
 27 29  1  0
 30 31  1  0
 30 32  1  0
 31 33  1  0
 31 37  1  1
 32 34  1  0
 32 36  1  6
 33 35  1  0
 34 35  1  0
 34 39  1  1
 35 38  1  0
 35 40  1  1
 49 37  1  1
 39 41  1  0
 41 42  2  0
 41 43  1  0
 44 45  1  0
 44 46  1  0
 45 47  1  0
 45 51  1  1
 46 48  1  0
 46 50  1  1
 47 49  1  0
 48 49  1  0
 48 52  1  6
 58 51  1  1
 53 54  1  0
 53 55  1  0
 54 56  1  0
 54 60  1  1
 55 57  1  0
 55 59  1  1
 56 58  1  0
 57 58  1  0
 57 61  1  6
 62 63  1  0
 62 64  1  0
 63 65  1  0
 64 66  1  0
 64 68  1  1
 65 67  1  0
 66 67  1  0
 66 70  1  1
 67 69  1  1
 72 69  1  6
 70 81  1  0
 71 72  1  0
 71 73  1  0
 72 74  1  0
 73 75  1  0
 73 77  1  1
 74 76  1  0
 75 76  1  0
 75 79  1  1
 76 78  1  1
 79 80  1  0
 81 82  1  0
 81 83  2  0
M  END
>  <Formula>  (413) 
C56H80O27

>  <FW>  (413) 
1185.2182

>  <DSSTox_CID>  (413) 
26363

>  <NR-Aromatase>  (413) 
1

>  <NR-AR>  (413) 
0

>  <SR-ATAD5>  (413) 
0

>  <SR-MMP>  (413) 
1

>  <SR-p53>  (413) 
1

$$$$
NCGC00254629-01
     RDKit          2D

 36 39  0  0  1  0  0  0  0  0999 V2000
    3.4956   -2.1242    0.0000 C   0  0  0  0  0  0  0  0  0  0  0  0
    3.2378   -2.9078    0.0000 C   0  0  0  0  0  0  0  0  0  0  0  0
    4.5989   -3.3512    0.0000 N   0  0  0  0  0  0  0  0  0  0  0  0
    3.7946   -3.5266    0.0000 N   0  0  0  0  0  0  0  0  0  0  0  0
    5.1557   -3.9700    0.0000 C   0  0  0  0  0  0  0  0  0  0  0  0
    6.0322   -3.5781    0.0000 N   0  0  0  0  0  0  0  0  0  0  0  0
    4.2999   -1.9592    0.0000 O   0  0  0  0  0  0  0  0  0  0  0  0
    2.4129   -2.9078    0.0000 C   0  0  0  0  0  0  0  0  0  0  0  0
    2.8356   -1.6499    0.0000 C   0  0  0  0  0  0  0  0  0  0  0  0
    2.1551   -2.1242    0.0000 C   0  0  0  0  0  0  0  0  0  0  0  0
    6.1250   -2.7635    0.0000 C   0  0  0  0  0  0  0  0  0  0  0  0
    3.6090   -1.3198    0.0000 C   0  0  0  0  0  0  0  0  0  0  0  0
    4.8464   -2.5779    0.0000 C   0  0  0  0  0  0  0  0  0  0  0  0
    9.5485   -5.2073    0.0000 C   0  0  0  0  0  0  0  0  0  0  0  0
    6.7231   -4.0731    0.0000 C   0  0  0  0  0  0  0  0  0  0  0  0
    1.8664   -3.5266    0.0000 C   0  0  0  0  0  0  0  0  0  0  0  0
    5.0630   -4.5989    0.0000 O   0  0  0  0  0  0  0  0  0  0  0  0
    1.3611   -1.9592    0.0000 C   0  0  0  0  0  0  0  0  0  0  0  0
    8.7751   -5.5579    0.0000 O   0  0  0  0  0  0  0  0  0  0  0  0
    5.4548   -2.2788    0.0000 O   0  0  0  0  0  0  0  0  0  0  0  0
    4.3721   -1.0105    0.0000 O   0  0  0  0  0  0  0  0  0  0  0  0
    7.4862   -3.7224    0.0000 C   0  0  0  0  0  0  0  0  0  0  0  0
    6.6096   -4.8774    0.0000 C   0  0  0  0  0  0  0  0  0  0  0  0
   10.3115   -4.8567    0.0000 F   0  0  0  0  0  0  0  0  0  0  0  0
    9.1979   -4.4340    0.0000 F   0  0  0  0  0  0  0  0  0  0  0  0
    9.8887   -5.9807    0.0000 F   0  0  0  0  0  0  0  0  0  0  0  0
    0.8146   -2.5779    0.0000 C   0  0  0  0  0  0  0  0  0  0  0  0
    6.8778   -2.4232    0.0000 O   0  0  0  0  0  0  0  0  0  0  0  0
    8.0636   -5.0320    0.0000 C   0  0  0  0  0  0  0  0  0  0  0  0
    1.0621   -3.3512    0.0000 C   0  0  0  0  0  0  0  0  0  0  0  0
    2.9594   -0.8146    0.0000 O   0  0  0  0  0  0  0  0  0  0  0  0
    8.1770   -4.2174    0.0000 C   0  0  0  0  0  0  0  0  0  0  0  0
    7.3212   -5.4033    0.0000 C   0  0  0  0  0  0  0  0  0  0  0  0
    0.0000   -2.3922    0.0000 Cl  0  0  0  0  0  0  0  0  0  0  0  0
    7.5377   -2.8976    0.0000 C   0  0  0  0  0  0  0  0  0  0  0  0
    3.0728    0.0000    0.0000 C   0  0  0  0  0  0  0  0  0  0  0  0
  1  2  1  0
  1  7  1  0
  1  9  1  0
  1 12  1  1
  2  4  2  0
  2  8  1  0
  3  4  1  0
  3  5  1  0
  3 13  1  0
  5  6  1  0
  5 17  2  0
  6 11  1  0
  6 15  1  0
  7 13  1  0
  8 16  2  0
  8 10  1  0
  9 10  1  0
 10 18  2  0
 11 20  2  0
 11 28  1  0
 12 21  2  0
 12 31  1  0
 14 19  1  0
 14 24  1  0
 14 25  1  0
 14 26  1  0
 15 22  2  0
 15 23  1  0
 16 30  1  0
 18 27  1  0
 19 29  1  0
 22 32  1  0
 23 33  2  0
 27 34  1  0
 27 30  2  0
 28 35  1  0
 29 33  1  0
 29 32  2  0
 31 36  1  0
M  END
>  <Formula>  (414) 
C22H17ClF3N3O7

>  <FW>  (414) 
527.8345

>  <DSSTox_CID>  (414) 
12690

>  <NR-Aromatase>  (414) 
1

>  <NR-AR>  (414) 
0

>  <NR-AhR>  (414) 
0

>  <SR-ATAD5>  (414) 
0

>  <SR-MMP>  (414) 
1

$$$$
NCGC00181104-02
     RDKit          2D

 28 30  0  0  0  0  0  0  0  0999 V2000
    7.4353   -1.3303    0.0000 N   0  0  0  0  0  0  0  0  0  0  0  0
    2.8463   -0.4331    0.0000 C   0  0  0  0  0  0  0  0  0  0  0  0
    7.4353   -0.5053    0.0000 C   0  0  0  0  0  0  0  0  0  0  0  0
    2.8463   -1.2581    0.0000 N   0  0  0  0  0  0  0  0  0  0  0  0
    2.1347   -0.0412    0.0000 S   0  0  0  0  0  0  0  0  0  0  0  0
    8.1572   -0.1134    0.0000 S   0  0  0  0  0  0  0  0  0  0  0  0
    8.8791   -1.3303    0.0000 C   0  0  0  0  0  0  0  0  0  0  0  0
    1.4231   -1.2581    0.0000 C   0  0  0  0  0  0  0  0  0  0  0  0
    8.8791   -0.5259    0.0000 C   0  0  0  0  0  0  0  0  0  0  0  0
    1.4231   -0.4331    0.0000 C   0  0  0  0  0  0  0  0  0  0  0  0
    3.6094    0.0000    0.0000 C   0  0  0  0  0  0  0  0  0  0  0  0
    6.6619   -0.0310    0.0000 C   0  0  0  0  0  0  0  0  0  0  0  0
    4.3622   -0.4434    0.0000 C   0  0  0  0  0  0  0  0  0  0  0  0
    5.8781   -0.4641    0.0000 C   0  0  0  0  0  0  0  0  0  0  0  0
    5.1150    0.0000    0.0000 C   0  0  0  0  0  0  0  0  0  0  0  0
    6.6928   -1.7634    0.0000 C   0  0  0  0  0  0  0  0  0  0  0  0
    3.5990   -1.6707    0.0000 C   0  0  0  0  0  0  0  0  0  0  0  0
    9.5803   -1.7015    0.0000 C   0  0  0  0  0  0  0  0  0  0  0  0
    0.7219   -1.6293    0.0000 C   0  0  0  0  0  0  0  0  0  0  0  0
    0.7219   -0.0412    0.0000 C   0  0  0  0  0  0  0  0  0  0  0  0
    9.5803   -0.0928    0.0000 C   0  0  0  0  0  0  0  0  0  0  0  0
    6.6928   -2.5781    0.0000 C   0  0  0  0  0  0  0  0  0  0  0  0
    3.5990   -2.5678    0.0000 C   0  0  0  0  0  0  0  0  0  0  0  0
   10.3125   -1.3097    0.0000 C   0  0  0  0  0  0  0  0  0  0  0  0
    0.0000   -1.2581    0.0000 C   0  0  0  0  0  0  0  0  0  0  0  0
   10.3125   -0.4847    0.0000 C   0  0  0  0  0  0  0  0  0  0  0  0
    0.0000   -0.4331    0.0000 C   0  0  0  0  0  0  0  0  0  0  0  0
    5.1872   -3.4340    0.0000 Cl  0  0  0  0  0  0  0  0  0  0  0  0
  1  3  2  0
  1  7  1  0
  1 16  1  0
  2 11  2  3
  2  4  1  0
  2  5  1  0
  3  6  1  0
  3 12  1  0
  4  8  1  0
  4 17  1  0
  5 10  1  0
  6  9  1  0
  7  9  2  0
  7 18  1  0
  8 19  1  0
  8 10  2  0
  9 21  1  0
 10 20  1  0
 11 13  1  0
 12 14  2  3
 13 15  2  3
 14 15  1  0
 16 22  1  0
 17 23  1  0
 18 24  2  0
 19 25  2  0
 20 27  2  0
 21 26  2  0
 24 26  1  0
 25 27  1  0
M  CHG  2   1   1  28  -1
M  END
>  <Formula>  (415) 
C23H23ClN2S2

>  <FW>  (415) 
427.0251 (391.5716+35.4535)

>  <DSSTox_CID>  (415) 
28657

>  <NR-AR>  (415) 
0

>  <NR-AR-LBD>  (415) 
0

>  <NR-ER-LBD>  (415) 
0

>  <NR-PPAR-gamma>  (415) 
0

>  <SR-MMP>  (415) 
1

$$$$
NCGC00091469-01
     RDKit          2D

 54 57  0  0  1  0  0  0  0  0999 V2000
    9.2815   -3.5549    0.0000 N   0  0  0  0  0  0  0  0  0  0  0  0
    9.9973   -3.1423    0.0000 C   0  0  0  0  0  0  0  0  0  0  0  0
    9.2815   -4.3799    0.0000 C   0  0  0  0  0  0  0  0  0  0  0  0
    8.5656   -3.1423    0.0000 C   0  0  0  0  0  0  0  0  0  0  0  0
   10.7010   -3.5549    0.0000 C   0  0  0  0  0  0  0  0  0  0  0  0
    9.9973   -2.3173    0.0000 C   0  0  0  0  0  0  0  0  0  0  0  0
    9.9973   -4.7924    0.0000 C   0  0  0  0  0  0  0  0  0  0  0  0
    7.8498   -3.5549    0.0000 C   0  0  0  0  0  0  0  0  0  0  0  0
   10.7010   -4.3799    0.0000 C   0  0  0  0  0  0  0  0  0  0  0  0
   10.7010   -1.9170    0.0000 N   0  0  0  0  0  0  0  0  0  0  0  0
    9.2815   -1.9170    0.0000 O   0  0  0  0  0  0  0  0  0  0  0  0
    9.9973   -5.6174    0.0000 C   0  0  0  0  0  0  0  0  0  0  0  0
    7.1461   -3.1423    0.0000 C   0  0  0  0  0  0  0  0  0  0  0  0
    7.8498   -4.3799    0.0000 O   0  0  0  0  0  0  0  0  0  0  0  0
   11.4168   -4.7924    0.0000 C   0  0  0  0  0  0  0  0  0  0  0  0
   11.4168   -2.3173    0.0000 C   0  0  0  0  0  0  0  0  0  0  0  0
   10.7010   -6.0299    0.0000 C   0  0  0  0  0  0  0  0  0  0  0  0
    7.1461   -1.8077    0.0000 C   0  0  0  0  0  0  0  0  0  0  0  0
    6.4181   -3.5549    0.0000 N   0  0  0  0  0  0  0  0  0  0  0  0
   11.4168   -5.6174    0.0000 C   0  0  0  0  0  0  0  0  0  0  0  0
   11.8293   -1.6015    0.0000 C   0  0  0  0  0  0  0  0  0  0  0  0
   11.0043   -3.0332    0.0000 C   0  0  0  0  0  0  0  0  0  0  0  0
   12.1326   -2.7298    0.0000 C   0  0  0  0  0  0  0  0  0  0  0  0
    6.4181   -1.5045    0.0000 C   0  0  0  0  0  0  0  0  0  0  0  0
    5.7144   -3.1423    0.0000 C   0  0  0  0  0  0  0  0  0  0  0  0
    6.4181   -0.6794    0.0000 C   0  0  0  0  0  0  0  0  0  0  0  0
    5.7144   -1.9170    0.0000 C   0  0  0  0  0  0  0  0  0  0  0  0
    4.9987   -3.5549    0.0000 C   0  0  0  0  0  0  0  0  0  0  0  0
    5.7144   -2.3173    0.0000 O   0  0  0  0  0  0  0  0  0  0  0  0
    5.7144   -0.2669    0.0000 C   0  0  0  0  0  0  0  0  0  0  0  0
    4.9987   -1.5045    0.0000 C   0  0  0  0  0  0  0  0  0  0  0  0
    4.2828   -3.1423    0.0000 N   0  0  0  0  0  0  0  0  0  0  0  0
    4.9987   -4.3799    0.0000 C   0  0  0  0  0  0  0  0  0  0  0  0
    4.9987   -0.6794    0.0000 C   0  0  0  0  0  0  0  0  0  0  0  0
    3.5670   -3.5549    0.0000 C   0  0  0  0  0  0  0  0  0  0  0  0
    5.7144   -4.7924    0.0000 C   0  0  0  0  0  0  0  0  0  0  0  0
    2.8633   -3.1423    0.0000 C   0  0  0  0  0  0  0  0  0  0  0  0
    3.5670   -4.3799    0.0000 O   0  0  0  0  0  0  0  0  0  0  0  0
    5.7144   -5.6174    0.0000 N   0  0  0  0  0  0  0  0  0  0  0  0
    6.4181   -4.3799    0.0000 O   0  0  0  0  0  0  0  0  0  0  0  0
    2.1353   -3.5549    0.0000 N   0  0  0  0  0  0  0  0  0  0  0  0
    2.8633   -2.3173    0.0000 C   0  0  0  0  0  0  0  0  0  0  0  0
    1.4316   -3.1423    0.0000 C   0  0  0  0  0  0  0  0  0  0  0  0
    2.1353   -1.9170    0.0000 C   0  0  0  0  0  0  0  0  0  0  0  0
    1.4316   -2.3173    0.0000 C   0  0  0  0  0  0  0  0  0  0  0  0
    0.7158   -3.5549    0.0000 C   0  0  0  0  0  0  0  0  0  0  0  0
    0.7158   -1.9170    0.0000 C   0  0  0  0  0  0  0  0  0  0  0  0
    0.0000   -3.1423    0.0000 C   0  0  0  0  0  0  0  0  0  0  0  0
    0.0000   -2.3173    0.0000 C   0  0  0  0  0  0  0  0  0  0  0  0
    3.6883   -0.7279    0.0000 S   0  0  0  0  0  0  0  0  0  0  0  0
    3.6883    0.0000    0.0000 O   0  0  0  0  0  0  0  0  0  0  0  0
    3.6883   -1.4438    0.0000 O   0  0  0  0  0  0  0  0  0  0  0  0
    4.4041   -0.7279    0.0000 O   0  0  0  0  0  0  0  0  0  0  0  0
    2.9603   -0.7279    0.0000 C   0  0  0  0  0  0  0  0  0  0  0  0
  1  2  1  0
  1  3  1  0
  1  4  1  0
  2  5  1  0
  2  6  1  6
  7  3  1  6
  4  8  1  0
  9  5  1  6
  6 10  1  0
  6 11  2  0
  7 12  1  0
  7  9  1  0
  8 13  1  0
  8 14  1  1
  9 15  1  0
 10 16  1  0
 12 17  1  0
 13 18  1  1
 13 19  1  0
 15 20  1  0
 16 21  1  0
 16 22  1  0
 16 23  1  0
 17 20  1  0
 18 24  1  0
 19 25  1  0
 24 26  2  0
 24 27  1  0
 25 28  1  0
 25 29  2  0
 26 30  1  0
 27 31  2  0
 28 32  1  0
 28 33  1  6
 30 34  2  0
 31 34  1  0
 32 35  1  0
 33 36  1  0
 35 37  1  0
 35 38  2  0
 36 39  1  0
 36 40  2  0
 37 41  2  0
 37 42  1  0
 41 43  1  0
 42 44  2  0
 43 45  2  0
 43 46  1  0
 44 45  1  0
 45 47  1  0
 46 48  2  0
 47 49  2  0
 48 49  1  0
 50 51  2  0
 50 52  2  0
 50 53  1  0
 50 54  1  0
M  END
>  <Formula>  (416) 
C39H54N6O8S

>  <FW>  (416) 
766.9465 (670.8408+96.1057)

>  <DSSTox_CID>  (416) 
3835

>  <NR-AR>  (416) 
0

>  <NR-AR-LBD>  (416) 
0

>  <NR-ER-LBD>  (416) 
0

>  <NR-AhR>  (416) 
0

>  <SR-MMP>  (416) 
1

$$$$
NCGC00183118-01
     RDKit          2D

 46 50  0  0  1  0  0  0  0  0999 V2000
    2.1359   -2.4888    0.0000 C   0  0  0  0  0  0  0  0  0  0  0  0
    1.4116   -2.0709    0.0000 C   0  0  0  0  0  0  0  0  0  0  0  0
    1.4116   -3.7240    0.0000 C   0  0  0  0  0  0  0  0  0  0  0  0
    0.7151   -2.4888    0.0000 C   0  0  0  0  0  0  0  0  0  0  0  0
    0.7151   -3.3060    0.0000 C   0  0  0  0  0  0  0  0  0  0  0  0
    2.8417   -2.0709    0.0000 C   0  0  0  0  0  0  0  0  0  0  0  0
    3.5475   -2.4888    0.0000 C   0  0  0  0  0  0  0  0  0  0  0  0
    3.5475   -3.3153    0.0000 C   0  0  0  0  0  0  0  0  0  0  0  0
    4.2718   -2.0709    0.0000 O   0  0  0  0  0  0  0  0  0  0  0  0
    4.9776   -2.4888    0.0000 C   0  0  0  0  0  0  0  0  0  0  0  0
    4.2718   -3.7240    0.0000 C   0  0  0  0  0  0  0  0  0  0  0  0
    4.9776   -3.3153    0.0000 C   0  0  0  0  0  0  0  0  0  0  0  0
    6.3984   -1.6716    0.0000 C   0  0  0  0  0  0  0  0  0  0  0  0
    6.3984   -2.4888    0.0000 C   0  0  0  0  0  0  0  0  0  0  0  0
    5.6834   -1.2537    0.0000 C   0  0  0  0  0  0  0  0  0  0  0  0
    5.6834   -2.8881    0.0000 O   0  0  0  0  0  0  0  0  0  0  0  0
    4.9776   -1.6716    0.0000 C   0  0  0  0  0  0  0  0  0  0  0  0
    7.1228   -2.8881    0.0000 C   0  0  0  0  0  0  0  0  0  0  0  0
    2.8417   -4.5411    0.0000 O   0  0  0  0  0  0  0  0  0  0  0  0
    4.2718   -4.5411    0.0000 O   0  0  0  0  0  0  0  0  0  0  0  0
    3.5475   -4.9405    0.0000 C   0  0  0  0  0  0  0  0  0  0  0  0
    2.1452   -4.9405    0.0000 C   0  0  0  0  0  0  0  0  0  0  0  0
    2.1452   -5.7577    0.0000 C   0  0  0  0  0  0  0  0  0  0  0  0
    3.5475   -5.7577    0.0000 C   0  0  0  0  0  0  0  0  0  0  0  0
    2.8417   -6.1849    0.0000 C   0  0  0  0  0  0  0  0  0  0  0  0
    1.4116   -4.5411    0.0000 C   0  0  0  0  0  0  0  0  0  0  0  0
    1.4116   -6.1849    0.0000 C   0  0  0  0  0  0  0  0  0  0  0  0
    1.4116   -6.9928    0.0000 O   0  0  0  0  0  0  0  0  0  0  0  0
    2.8417   -6.9928    0.0000 C   0  0  0  0  0  0  0  0  0  0  0  0
    4.2718   -6.1849    0.0000 C   0  0  0  0  0  0  0  0  0  0  0  0
    4.2718   -6.9928    0.0000 C   0  0  0  0  0  0  0  0  0  0  0  0
    3.5475   -7.4014    0.0000 C   0  0  0  0  0  0  0  0  0  0  0  0
    1.4116   -1.2537    0.0000 C   0  0  0  0  0  0  0  0  0  0  0  0
    0.0000   -3.7240    0.0000 C   0  0  0  0  0  0  0  0  0  0  0  0
    2.8417   -5.3584    0.0000 O   0  0  0  0  0  0  0  0  0  0  0  0
    4.9776   -7.4014    0.0000 C   0  0  0  0  0  0  0  0  0  0  0  0
    3.5475   -8.2279    0.0000 O   0  0  0  0  0  0  0  0  0  0  0  0
    7.1135   -1.2537    0.0000 C   0  0  0  0  0  0  0  0  0  0  0  0
    5.6834   -0.4272    0.0000 N   0  0  0  0  0  0  0  0  0  0  0  0
    6.4077    0.0000    0.0000 O   0  0  0  0  0  0  0  0  0  0  0  0
    7.1321   -0.4272    0.0000 C   0  0  0  0  0  0  0  0  0  0  0  0
    7.1228   -3.7240    0.0000 C   0  0  0  0  0  0  0  0  0  0  0  0
    7.8379   -2.4702    0.0000 C   0  0  0  0  0  0  0  0  0  0  0  0
    8.5715   -2.8881    0.0000 C   0  0  0  0  0  0  0  0  0  0  0  0
    9.2866   -2.4702    0.0000 C   0  0  0  0  0  0  0  0  0  0  0  0
    8.5715   -3.7240    0.0000 C   0  0  0  0  0  0  0  0  0  0  0  0
  1  2  2  0
  1  6  1  0
  2  4  1  0
  2 33  1  0
  3  5  1  0
  3 26  2  0
  4  5  1  0
  5 34  1  6
  7  6  1  1
  7  9  1  0
  7  8  1  0
  8 11  1  0
  9 10  1  0
 10 12  1  1
 10 16  1  0
 10 17  1  0
 11 12  1  1
 11 20  1  0
 13 14  1  0
 13 15  1  0
 13 38  1  6
 14 18  1  0
 14 16  1  1
 15 17  1  0
 15 39  2  0
 18 42  1  0
 18 43  2  0
 19 21  2  0
 20 21  1  0
 21 24  1  0
 22 23  2  0
 22 26  1  0
 23 27  1  0
 23 25  1  0
 24 30  1  6
 24 25  1  0
 25 29  1  0
 25 35  1  6
 27 28  1  0
 29 28  1  1
 29 32  1  0
 30 31  2  0
 31 32  1  0
 31 36  1  0
 32 37  1  1
 39 40  1  0
 40 41  1  0
 43 44  1  0
 44 45  1  0
 44 46  1  0
M  END
>  <Formula>  (417) 
C37H53NO8

>  <FW>  (417) 
639.8186

>  <DSSTox_CID>  (417) 
17577

>  <NR-AR>  (417) 
1

>  <NR-AR-LBD>  (417) 
1

>  <NR-AhR>  (417) 
0

>  <SR-ATAD5>  (417) 
0

>  <SR-MMP>  (417) 
1

$$$$
NCGC00181798-01
     RDKit          2D

 65 71  0  0  1  0  0  0  0  0999 V2000
    2.8449   -2.4791    0.0000 C   0  0  0  0  0  0  0  0  0  0  0  0
    2.8449   -3.2919    0.0000 C   0  0  0  0  0  0  0  0  0  0  0  0
    2.1404   -2.0592    0.0000 C   0  0  0  0  0  0  0  0  0  0  0  0
    2.1404   -3.6983    0.0000 O   0  0  0  0  0  0  0  0  0  0  0  0
    1.4360   -2.4791    0.0000 C   0  0  0  0  0  0  0  0  0  0  0  0
    1.4360   -3.2919    0.0000 C   0  0  0  0  0  0  0  0  0  0  0  0
    2.1404   -1.2328    0.0000 O   0  0  0  0  0  0  0  0  0  0  0  0
    0.7180   -2.0592    0.0000 N   0  0  0  0  0  0  0  0  0  0  0  0
    0.7180   -3.6983    0.0000 C   0  0  0  0  0  0  0  0  0  0  0  0
    3.5764   -3.6983    0.0000 O   0  0  0  0  0  0  0  0  0  0  0  0
    4.2809   -3.2919    0.0000 C   0  0  0  0  0  0  0  0  0  0  0  0
    4.2809   -2.4791    0.0000 C   0  0  0  0  0  0  0  0  0  0  0  0
    5.0124   -3.6983    0.0000 C   0  0  0  0  0  0  0  0  0  0  0  0
    5.0124   -2.0592    0.0000 O   0  0  0  0  0  0  0  0  0  0  0  0
    5.7033   -3.2919    0.0000 C   0  0  0  0  0  0  0  0  0  0  0  0
    5.7033   -2.4791    0.0000 C   0  0  0  0  0  0  0  0  0  0  0  0
    0.7180   -1.2328    0.0000 C   0  0  0  0  0  0  0  0  0  0  0  0
    1.4360   -0.8264    0.0000 O   0  0  0  0  0  0  0  0  0  0  0  0
    0.0000   -0.8264    0.0000 C   0  0  0  0  0  0  0  0  0  0  0  0
    6.4213   -2.0592    0.0000 O   0  0  0  0  0  0  0  0  0  0  0  0
    2.8449   -0.8264    0.0000 C   0  0  0  0  0  0  0  0  0  0  0  0
    8.5617   -2.4791    0.0000 C   0  0  0  0  0  0  0  0  0  0  0  0
    7.8438   -2.0592    0.0000 C   0  0  0  0  0  0  0  0  0  0  0  0
    7.8438   -3.6983    0.0000 C   0  0  0  0  0  0  0  0  0  0  0  0
    7.1257   -2.4791    0.0000 C   0  0  0  0  0  0  0  0  0  0  0  0
    7.1257   -3.2919    0.0000 C   0  0  0  0  0  0  0  0  0  0  0  0
    9.2662   -2.0592    0.0000 C   0  0  0  0  0  0  0  0  0  0  0  0
    9.9842   -2.4791    0.0000 C   0  0  0  0  0  0  0  0  0  0  0  0
    9.9842   -3.2919    0.0000 C   0  0  0  0  0  0  0  0  0  0  0  0
   10.7022   -2.0592    0.0000 O   0  0  0  0  0  0  0  0  0  0  0  0
   11.4066   -2.4791    0.0000 C   0  0  0  0  0  0  0  0  0  0  0  0
   10.7022   -3.6983    0.0000 C   0  0  0  0  0  0  0  0  0  0  0  0
   11.4066   -3.2919    0.0000 C   0  0  0  0  0  0  0  0  0  0  0  0
   12.8291   -1.6528    0.0000 C   0  0  0  0  0  0  0  0  0  0  0  0
   12.8291   -2.4791    0.0000 C   0  0  0  0  0  0  0  0  0  0  0  0
   12.1246   -1.2328    0.0000 C   0  0  0  0  0  0  0  0  0  0  0  0
   12.1246   -2.8855    0.0000 C   0  0  0  0  0  0  0  0  0  0  0  0
   11.4066   -1.6528    0.0000 O   0  0  0  0  0  0  0  0  0  0  0  0
    7.8438   -4.5247    0.0000 C   0  0  0  0  0  0  0  0  0  0  0  0
    8.5617   -4.9311    0.0000 C   0  0  0  0  0  0  0  0  0  0  0  0
   10.7022   -4.5247    0.0000 O   0  0  0  0  0  0  0  0  0  0  0  0
    9.9842   -4.9311    0.0000 C   0  0  0  0  0  0  0  0  0  0  0  0
    8.5617   -5.7575    0.0000 C   0  0  0  0  0  0  0  0  0  0  0  0
    9.9842   -5.7575    0.0000 C   0  0  0  0  0  0  0  0  0  0  0  0
    9.2662   -6.1639    0.0000 C   0  0  0  0  0  0  0  0  0  0  0  0
    7.8438   -6.1639    0.0000 C   0  0  0  0  0  0  0  0  0  0  0  0
    7.8438   -7.0039    0.0000 O   0  0  0  0  0  0  0  0  0  0  0  0
    9.2662   -7.0039    0.0000 C   0  0  0  0  0  0  0  0  0  0  0  0
   10.7022   -6.1639    0.0000 C   0  0  0  0  0  0  0  0  0  0  0  0
   10.7022   -7.0039    0.0000 C   0  0  0  0  0  0  0  0  0  0  0  0
    9.9842   -7.3967    0.0000 C   0  0  0  0  0  0  0  0  0  0  0  0
    7.8438   -1.2328    0.0000 C   0  0  0  0  0  0  0  0  0  0  0  0
    6.4213   -3.6983    0.0000 C   0  0  0  0  0  0  0  0  0  0  0  0
    9.2662   -5.3375    0.0000 O   0  0  0  0  0  0  0  0  0  0  0  0
    9.9842   -8.2230    0.0000 O   0  0  0  0  0  0  0  0  0  0  0  0
   11.4066   -7.3967    0.0000 C   0  0  0  0  0  0  0  0  0  0  0  0
    9.2662   -4.5247    0.0000 O   0  0  0  0  0  0  0  0  0  0  0  0
   12.1246   -0.4064    0.0000 C   0  0  0  0  0  0  0  0  0  0  0  0
   12.8291    0.0000    0.0000 C   0  0  0  0  0  0  0  0  0  0  0  0
   11.4066    0.0000    0.0000 C   0  0  0  0  0  0  0  0  0  0  0  0
   13.5471   -1.2463    0.0000 C   0  0  0  0  0  0  0  0  0  0  0  0
    3.5629   -2.0592    0.0000 C   0  0  0  0  0  0  0  0  0  0  0  0
    4.9989   -4.5247    0.0000 O   0  0  0  0  0  0  0  0  0  0  0  0
    4.2673   -4.9311    0.0000 C   0  0  0  0  0  0  0  0  0  0  0  0
   13.5471   -0.4064    0.0000 C   0  0  0  0  0  0  0  0  0  0  0  0
  1  2  1  0
  1  3  1  0
  2  4  1  0
  2 10  1  6
  3  5  1  0
  3  7  1  1
  4  6  1  0
  5  6  1  0
  5  8  1  1
  6  9  1  1
  7 21  1  0
  8 17  1  0
 11 10  1  1
 11 12  1  0
 11 13  1  0
 12 14  1  0
 12 62  1  6
 13 15  1  0
 13 63  1  6
 14 16  1  0
 15 16  1  0
 16 20  1  1
 17 18  2  0
 17 19  1  0
 25 20  1  6
 22 23  2  0
 22 27  1  0
 23 25  1  0
 23 52  1  0
 24 26  1  0
 24 39  2  0
 25 26  1  0
 26 53  1  6
 28 27  1  1
 28 30  1  0
 28 29  1  0
 29 32  1  0
 31 30  1  0
 31 33  1  6
 31 37  1  0
 31 38  1  0
 32 33  1  1
 32 41  1  0
 34 35  1  0
 34 36  1  0
 34 61  1  1
 35 37  2  0
 36 38  1  0
 36 58  1  6
 39 40  1  0
 40 43  2  0
 41 42  1  0
 42 44  1  0
 42 57  2  0
 43 46  1  0
 43 45  1  0
 44 49  1  6
 44 45  1  0
 45 48  1  0
 45 54  1  6
 46 47  1  0
 48 47  1  1
 48 51  1  0
 49 50  2  0
 50 51  1  0
 50 56  1  0
 51 55  1  1
 58 59  1  0
 58 60  1  0
 59 65  1  0
 63 64  1  0
M  END
>  <Formula>  (418) 
C50H75NO14

>  <FW>  (418) 
914.1288

>  <DSSTox_CID>  (418) 
28903

>  <NR-AR>  (418) 
0

>  <NR-AR-LBD>  (418) 
0

>  <NR-ER-LBD>  (418) 
0

>  <NR-AhR>  (418) 
0

>  <SR-MMP>  (418) 
1

$$$$
NCGC00185761-01
     RDKit          2D

 64 71  0  0  1  0  0  0  0  0999 V2000
    7.8501   -1.6700    0.0000 C   0  0  0  0  0  0  0  0  0  0  0  0
    7.1365   -1.2417    0.0000 C   0  0  0  0  0  0  0  0  0  0  0  0
    7.1365   -2.8974    0.0000 C   0  0  0  0  0  0  0  0  0  0  0  0
    6.4229   -1.6700    0.0000 C   0  0  0  0  0  0  0  0  0  0  0  0
    6.4229   -2.4835    0.0000 C   0  0  0  0  0  0  0  0  0  0  0  0
    8.5638   -1.2417    0.0000 C   0  0  0  0  0  0  0  0  0  0  0  0
    9.2774   -1.6700    0.0000 C   0  0  0  0  0  0  0  0  0  0  0  0
    9.2774   -2.4835    0.0000 C   0  0  0  0  0  0  0  0  0  0  0  0
    9.9911   -1.2417    0.0000 O   0  0  0  0  0  0  0  0  0  0  0  0
   10.7048   -1.6700    0.0000 C   0  0  0  0  0  0  0  0  0  0  0  0
    9.9911   -2.8974    0.0000 C   0  0  0  0  0  0  0  0  0  0  0  0
   10.7048   -2.4835    0.0000 C   0  0  0  0  0  0  0  0  0  0  0  0
   12.1320   -0.8564    0.0000 C   0  0  0  0  0  0  0  0  0  0  0  0
   12.1320   -1.6700    0.0000 C   0  0  0  0  0  0  0  0  0  0  0  0
   11.4184   -0.4425    0.0000 C   0  0  0  0  0  0  0  0  0  0  0  0
   11.4184   -2.0981    0.0000 O   0  0  0  0  0  0  0  0  0  0  0  0
   10.7048   -0.8564    0.0000 C   0  0  0  0  0  0  0  0  0  0  0  0
   12.8457   -2.0981    0.0000 C   0  0  0  0  0  0  0  0  0  0  0  0
   13.5593   -1.6700    0.0000 C   0  0  0  0  0  0  0  0  0  0  0  0
   12.8457   -2.8974    0.0000 C   0  0  0  0  0  0  0  0  0  0  0  0
   14.2730   -2.0981    0.0000 C   0  0  0  0  0  0  0  0  0  0  0  0
   13.5593   -3.3256    0.0000 C   0  0  0  0  0  0  0  0  0  0  0  0
   14.2730   -2.8974    0.0000 C   0  0  0  0  0  0  0  0  0  0  0  0
    8.5638   -3.7109    0.0000 O   0  0  0  0  0  0  0  0  0  0  0  0
    9.9911   -3.7109    0.0000 O   0  0  0  0  0  0  0  0  0  0  0  0
    9.2774   -4.1392    0.0000 C   0  0  0  0  0  0  0  0  0  0  0  0
    7.8501   -4.1392    0.0000 C   0  0  0  0  0  0  0  0  0  0  0  0
    7.8501   -4.9527    0.0000 C   0  0  0  0  0  0  0  0  0  0  0  0
    9.2774   -4.9527    0.0000 C   0  0  0  0  0  0  0  0  0  0  0  0
    8.5638   -5.3809    0.0000 C   0  0  0  0  0  0  0  0  0  0  0  0
    7.1365   -3.7109    0.0000 C   0  0  0  0  0  0  0  0  0  0  0  0
    7.1365   -5.3809    0.0000 C   0  0  0  0  0  0  0  0  0  0  0  0
    7.1365   -6.1945    0.0000 O   0  0  0  0  0  0  0  0  0  0  0  0
    8.5638   -6.1945    0.0000 C   0  0  0  0  0  0  0  0  0  0  0  0
    9.9911   -5.3809    0.0000 C   0  0  0  0  0  0  0  0  0  0  0  0
    9.9911   -6.1945    0.0000 C   0  0  0  0  0  0  0  0  0  0  0  0
    9.2774   -6.6084    0.0000 C   0  0  0  0  0  0  0  0  0  0  0  0
    8.5638   -4.5245    0.0000 O   0  0  0  0  0  0  0  0  0  0  0  0
    9.2774   -7.4220    0.0000 O   0  0  0  0  0  0  0  0  0  0  0  0
    5.7092   -1.2417    0.0000 O   0  0  0  0  0  0  0  0  0  0  0  0
    7.1365   -0.4425    0.0000 C   0  0  0  0  0  0  0  0  0  0  0  0
    5.7092   -2.8974    0.0000 C   0  0  0  0  0  0  0  0  0  0  0  0
    4.9955   -1.6700    0.0000 C   0  0  0  0  0  0  0  0  0  0  0  0
    4.2819   -1.2417    0.0000 C   0  0  0  0  0  0  0  0  0  0  0  0
    4.9955   -2.4835    0.0000 O   0  0  0  0  0  0  0  0  0  0  0  0
    3.5683   -1.6700    0.0000 C   0  0  0  0  0  0  0  0  0  0  0  0
    4.2819   -2.8974    0.0000 C   0  0  0  0  0  0  0  0  0  0  0  0
    3.5683   -2.4835    0.0000 C   0  0  0  0  0  0  0  0  0  0  0  0
   12.8457   -0.4425    0.0000 C   0  0  0  0  0  0  0  0  0  0  0  0
   10.7048   -6.6084    0.0000 C   0  0  0  0  0  0  0  0  0  0  0  0
    2.8546   -1.2417    0.0000 O   0  0  0  0  0  0  0  0  0  0  0  0
    2.8546   -2.8974    0.0000 O   0  0  0  0  0  0  0  0  0  0  0  0
    4.2819   -3.7109    0.0000 C   0  0  0  0  0  0  0  0  0  0  0  0
    2.8546   -0.4425    0.0000 C   0  0  0  0  0  0  0  0  0  0  0  0
    2.1410   -2.4835    0.0000 C   0  0  0  0  0  0  0  0  0  0  0  0
    2.1410   -1.6700    0.0000 C   0  0  0  0  0  0  0  0  0  0  0  0
    1.4273   -2.8974    0.0000 O   0  0  0  0  0  0  0  0  0  0  0  0
    1.4273   -1.2417    0.0000 C   0  0  0  0  0  0  0  0  0  0  0  0
    0.7136   -2.4835    0.0000 C   0  0  0  0  0  0  0  0  0  0  0  0
    0.7136   -1.6700    0.0000 C   0  0  0  0  0  0  0  0  0  0  0  0
    0.0000   -2.8974    0.0000 C   0  0  0  0  0  0  0  0  0  0  0  0
    0.0000   -1.2417    0.0000 O   0  0  0  0  0  0  0  0  0  0  0  0
    1.4273   -0.4425    0.0000 O   0  0  0  0  0  0  0  0  0  0  0  0
    2.1410    0.0000    0.0000 C   0  0  0  0  0  0  0  0  0  0  0  0
  1  2  2  0
  1  6  1  0
  2  4  1  0
  2 41  1  0
  3  5  1  0
  3 31  2  0
  4  5  1  0
  4 40  1  6
  5 42  1  6
  7  6  1  1
  7  9  1  0
  7  8  1  0
  8 11  1  0
  9 10  1  0
 10 12  1  1
 10 16  1  0
 10 17  1  0
 11 12  1  1
 11 25  1  0
 13 14  1  0
 13 15  1  0
 13 49  1  6
 14 16  1  0
 14 18  1  1
 15 17  2  0
 18 19  1  0
 18 20  1  0
 19 21  1  0
 20 22  1  0
 21 23  1  0
 22 23  1  0
 24 26  2  0
 25 26  1  0
 26 29  1  0
 27 28  2  0
 27 31  1  0
 28 32  1  0
 28 30  1  0
 29 35  1  6
 29 30  1  0
 30 34  1  0
 30 38  1  6
 32 33  1  0
 34 33  1  1
 34 37  1  0
 35 36  2  0
 36 37  1  0
 36 50  1  0
 37 39  1  1
 43 40  1  6
 43 44  1  0
 43 45  1  0
 44 46  1  0
 45 47  1  0
 46 48  1  0
 46 51  1  1
 47 48  1  0
 47 53  1  1
 48 52  1  6
 51 54  1  0
 55 52  1  6
 55 56  1  0
 55 57  1  0
 56 58  1  0
 57 59  1  0
 58 60  1  0
 58 63  1  1
 59 60  1  0
 59 61  1  1
 60 62  1  6
 63 64  1  0
M  END
>  <Formula>  (419) 
C50H74O14

>  <FW>  (419) 
899.1142

>  <DSSTox_CID>  (419) 
28908

>  <NR-Aromatase>  (419) 
0

>  <NR-AR>  (419) 
0

>  <NR-AR-LBD>  (419) 
0

>  <NR-ER-LBD>  (419) 
0

>  <NR-AhR>  (419) 
0

>  <SR-MMP>  (419) 
1

$$$$
NCGC00168786-01
     RDKit          2D

 42 47  0  0  1  0  0  0  0  0999 V2000
    2.8366   -1.2329    0.0000 C   0  0  0  0  0  0  0  0  0  0  0  0
    2.8366   -0.3986    0.0000 C   0  0  0  0  0  0  0  0  0  0  0  0
    2.1414   -1.6501    0.0000 N   0  0  0  0  0  0  0  0  0  0  0  0
    4.2642   -3.6802    0.0000 C   0  0  0  0  0  0  0  0  0  0  0  0
    4.2642   -2.8645    0.0000 C   0  0  0  0  0  0  0  0  0  0  0  0
    3.5597   -1.6501    0.0000 C   0  0  0  0  0  0  0  0  0  0  0  0
    4.2550   -1.2329    0.0000 N   0  0  0  0  0  0  0  0  0  0  0  0
    4.9316   -2.4751    0.0000 C   0  0  0  0  0  0  0  0  0  0  0  0
    5.6640   -3.6802    0.0000 C   0  0  0  0  0  0  0  0  0  0  0  0
    7.1101   -3.6895    0.0000 C   0  0  0  0  0  0  0  0  0  0  0  0
    3.5597   -2.4751    0.0000 C   0  0  0  0  0  0  0  0  0  0  0  0
    1.4183   -0.3986    0.0000 C   0  0  0  0  0  0  0  0  0  0  0  0
    4.9687   -4.0881    0.0000 C   0  0  0  0  0  0  0  0  0  0  0  0
    1.4183   -1.2329    0.0000 C   0  0  0  0  0  0  0  0  0  0  0  0
    7.1101   -2.8830    0.0000 C   0  0  0  0  0  0  0  0  0  0  0  0
    7.1101   -1.2329    0.0000 C   0  0  0  0  0  0  0  0  0  0  0  0
    3.5597   -4.1344    0.0000 C   0  0  0  0  0  0  0  0  0  0  0  0
    6.3871   -4.1066    0.0000 O   0  0  0  0  0  0  0  0  0  0  0  0
    4.9316   -1.6501    0.0000 C   0  0  0  0  0  0  0  0  0  0  0  0
    7.8147   -1.6594    0.0000 C   0  0  0  0  0  0  0  0  0  0  0  0
    6.4056   -1.6594    0.0000 C   0  0  0  0  0  0  0  0  0  0  0  0
    5.6640   -2.8645    0.0000 C   0  0  0  0  0  0  0  0  0  0  0  0
    3.5319    0.0000    0.0000 C   0  0  0  0  0  0  0  0  0  0  0  0
    7.8147   -2.4844    0.0000 C   0  0  0  0  0  0  0  0  0  0  0  0
    6.4056   -2.4844    0.0000 C   0  0  0  0  0  0  0  0  0  0  0  0
    4.2550   -0.3986    0.0000 C   0  0  0  0  0  0  0  0  0  0  0  0
    7.8147   -4.1066    0.0000 O   0  0  0  0  0  0  0  0  0  0  0  0
    2.8552   -3.6988    0.0000 O   0  0  0  0  0  0  0  0  0  0  0  0
    7.1101   -0.4172    0.0000 O   0  0  0  0  0  0  0  0  0  0  0  0
    4.9687   -4.9224    0.0000 O   0  0  0  0  0  0  0  0  0  0  0  0
    3.5597   -4.9409    0.0000 O   0  0  0  0  0  0  0  0  0  0  0  0
    8.5470   -1.2329    0.0000 O   0  0  0  0  0  0  0  0  0  0  0  0
    5.7103   -1.2236    0.0000 O   0  0  0  0  0  0  0  0  0  0  0  0
    0.7231    0.0000    0.0000 C   0  0  0  0  0  0  0  0  0  0  0  0
    0.7231   -1.6501    0.0000 C   0  0  0  0  0  0  0  0  0  0  0  0
    7.8147    0.0000    0.0000 C   0  0  0  0  0  0  0  0  0  0  0  0
    5.6732   -5.3395    0.0000 C   0  0  0  0  0  0  0  0  0  0  0  0
    5.7103   -0.3430    0.0000 C   0  0  0  0  0  0  0  0  0  0  0  0
    4.2827   -5.3395    0.0000 C   0  0  0  0  0  0  0  0  0  0  0  0
    9.2700   -1.6501    0.0000 C   0  0  0  0  0  0  0  0  0  0  0  0
    0.0000   -0.3986    0.0000 C   0  0  0  0  0  0  0  0  0  0  0  0
    0.0000   -1.2329    0.0000 C   0  0  0  0  0  0  0  0  0  0  0  0
  1  2  2  0
  1  3  1  0
  1  6  1  0
  2 12  1  0
  2 23  1  0
  3 14  1  0
  4  5  1  0
  4 13  1  0
  4 17  1  1
  5 11  1  1
  5  8  1  0
  6  7  1  0
  6 11  1  6
  7 19  1  0
  7 26  1  0
  8 22  1  1
  8 19  1  0
  9 22  1  0
  9 18  1  1
  9 13  1  0
 10 18  1  0
 10 15  1  0
 10 27  2  0
 12 34  1  0
 12 14  2  0
 13 30  1  6
 14 35  1  0
 15 24  1  0
 15 25  2  0
 16 21  2  0
 16 29  1  0
 16 20  1  0
 17 28  2  0
 17 31  1  0
 20 24  2  0
 20 32  1  0
 21 25  1  0
 21 33  1  0
 23 26  1  0
 29 36  1  0
 30 37  1  0
 31 39  1  0
 32 40  1  0
 33 38  1  0
 34 41  2  0
 35 42  2  0
 41 42  1  0
M  END
>  <Formula>  (420) 
C32H38N2O8

>  <FW>  (420) 
578.6527

>  <DSSTox_CID>  (420) 
383

>  <NR-AR>  (420) 
0

>  <NR-ER-LBD>  (420) 
0

>  <NR-AhR>  (420) 
1

>  <SR-MMP>  (420) 
1

$$$$
NCGC00181146-01
     RDKit          2D

 65 68  0  0  1  0  0  0  0  0999 V2000
    3.5645   -2.8876    0.0000 C   0  0  0  0  0  0  0  0  0  0  0  0
    3.5645   -3.7126    0.0000 O   0  0  0  0  0  0  0  0  0  0  0  0
    2.8559   -2.4751    0.0000 C   0  0  0  0  0  0  0  0  0  0  0  0
    2.8559   -4.1145    0.0000 O   0  0  0  0  0  0  0  0  0  0  0  0
    2.1472   -2.8876    0.0000 N   0  0  0  0  0  0  0  0  0  0  0  0
    2.1472   -3.7126    0.0000 C   0  0  0  0  0  0  0  0  0  0  0  0
    4.2838   -2.4751    0.0000 O   0  0  0  0  0  0  0  0  0  0  0  0
    4.9819   -2.8876    0.0000 C   0  0  0  0  0  0  0  0  0  0  0  0
    4.9819   -3.7126    0.0000 C   0  0  0  0  0  0  0  0  0  0  0  0
    5.7011   -2.4751    0.0000 C   0  0  0  0  0  0  0  0  0  0  0  0
    6.4098   -2.8876    0.0000 C   0  0  0  0  0  0  0  0  0  0  0  0
    5.7011   -4.1145    0.0000 C   0  0  0  0  0  0  0  0  0  0  0  0
    2.8559   -1.6501    0.0000 C   0  0  0  0  0  0  0  0  0  0  0  0
    2.1472   -1.2375    0.0000 C   0  0  0  0  0  0  0  0  0  0  0  0
    1.4279   -2.4751    0.0000 C   0  0  0  0  0  0  0  0  0  0  0  0
    1.4279   -1.6501    0.0000 C   0  0  0  0  0  0  0  0  0  0  0  0
    5.7011   -1.6501    0.0000 C   0  0  0  0  0  0  0  0  0  0  0  0
    6.4098   -1.2375    0.0000 C   0  0  0  0  0  0  0  0  0  0  0  0
    7.1291   -1.6501    0.0000 C   0  0  0  0  0  0  0  0  0  0  0  0
    6.4098   -0.4125    0.0000 C   0  0  0  0  0  0  0  0  0  0  0  0
    7.1291    0.0000    0.0000 C   0  0  0  0  0  0  0  0  0  0  0  0
    7.8377   -1.2375    0.0000 C   0  0  0  0  0  0  0  0  0  0  0  0
    7.8377   -0.4125    0.0000 C   0  0  0  0  0  0  0  0  0  0  0  0
    2.1472   -5.3415    0.0000 O   0  0  0  0  0  0  0  0  0  0  0  0
    1.4279   -4.1145    0.0000 C   0  0  0  0  0  0  0  0  0  0  0  0
    1.4279   -4.9395    0.0000 C   0  0  0  0  0  0  0  0  0  0  0  0
    5.7011   -4.9395    0.0000 C   0  0  0  0  0  0  0  0  0  0  0  0
    4.9819   -5.3415    0.0000 C   0  0  0  0  0  0  0  0  0  0  0  0
    2.1366   -6.1665    0.0000 C   0  0  0  0  0  0  0  0  0  0  0  0
    1.4279   -6.5896    0.0000 C   0  0  0  0  0  0  0  0  0  0  0  0
    0.7192   -5.3415    0.0000 C   0  0  0  0  0  0  0  0  0  0  0  0
    0.7192   -6.1665    0.0000 C   0  0  0  0  0  0  0  0  0  0  0  0
    2.8559   -6.5896    0.0000 C   0  0  0  0  0  0  0  0  0  0  0  0
    6.4098   -5.3415    0.0000 C   0  0  0  0  0  0  0  0  0  0  0  0
    6.4098   -6.1665    0.0000 C   0  0  0  0  0  0  0  0  0  0  0  0
    5.7011   -6.5896    0.0000 C   0  0  0  0  0  0  0  0  0  0  0  0
    2.8559   -7.4147    0.0000 C   0  0  0  0  0  0  0  0  0  0  0  0
    4.2838   -7.4147    0.0000 C   0  0  0  0  0  0  0  0  0  0  0  0
    3.5751   -7.8271    0.0000 C   0  0  0  0  0  0  0  0  0  0  0  0
    7.1291   -6.5896    0.0000 C   0  0  0  0  0  0  0  0  0  0  0  0
    7.1291   -7.4147    0.0000 C   0  0  0  0  0  0  0  0  0  0  0  0
    6.4098   -7.8166    0.0000 O   0  0  0  0  0  0  0  0  0  0  0  0
    3.5751   -8.6416    0.0000 C   0  0  0  0  0  0  0  0  0  0  0  0
    4.2838   -9.0541    0.0000 C   0  0  0  0  0  0  0  0  0  0  0  0
    6.4098   -8.6416    0.0000 C   0  0  0  0  0  0  0  0  0  0  0  0
    7.8377   -7.8166    0.0000 C   0  0  0  0  0  0  0  0  0  0  0  0
    7.8377   -8.6416    0.0000 C   0  0  0  0  0  0  0  0  0  0  0  0
    7.1291   -9.0541    0.0000 C   0  0  0  0  0  0  0  0  0  0  0  0
    5.7011   -9.8792    0.0000 C   0  0  0  0  0  0  0  0  0  0  0  0
    4.9819  -10.2916    0.0000 C   0  0  0  0  0  0  0  0  0  0  0  0
    4.2838   -9.8792    0.0000 C   0  0  0  0  0  0  0  0  0  0  0  0
    6.7377   -9.8792    0.0000 C   0  0  0  0  0  0  0  0  0  0  0  0
    8.5570   -7.4147    0.0000 O   0  0  0  0  0  0  0  0  0  0  0  0
    7.8377   -6.1665    0.0000 O   0  0  0  0  0  0  0  0  0  0  0  0
    8.5570   -9.0541    0.0000 C   0  0  0  0  0  0  0  0  0  0  0  0
    7.1820  -10.5772    0.0000 C   0  0  0  0  0  0  0  0  0  0  0  0
    2.1472   -7.8271    0.0000 O   0  0  0  0  0  0  0  0  0  0  0  0
    2.1472   -8.6522    0.0000 C   0  0  0  0  0  0  0  0  0  0  0  0
    6.4098   -3.7126    0.0000 O   0  0  0  0  0  0  0  0  0  0  0  0
    0.7192   -4.5271    0.0000 O   0  0  0  0  0  0  0  0  0  0  0  0
    0.7192   -3.7020    0.0000 O   0  0  0  0  0  0  0  0  0  0  0  0
    8.5570   -1.6501    0.0000 O   0  0  0  0  0  0  0  0  0  0  0  0
    8.5570   -0.0106    0.0000 O   0  0  0  0  0  0  0  0  0  0  0  0
    0.0000   -4.9395    0.0000 C   0  0  0  0  0  0  0  0  0  0  0  0
    8.5570   -2.4751    0.0000 C   0  0  0  0  0  0  0  0  0  0  0  0
  1  3  1  0
  1  7  1  0
  1  2  2  0
  3 13  1  1
  3  5  1  0
  4  6  2  0
  5  6  1  0
  5 15  1  0
  6 25  1  0
  7  8  1  0
  8 10  1  0
  8  9  1  6
  9 12  1  0
 10 17  1  0
 10 11  1  1
 12 27  1  0
 12 59  2  0
 13 14  1  0
 14 16  1  0
 15 16  1  0
 18 17  1  6
 18 20  1  0
 18 19  1  0
 19 22  1  0
 20 21  1  0
 21 23  1  0
 22 23  1  0
 22 62  1  6
 23 63  1  1
 24 26  1  0
 24 29  1  0
 25 26  1  0
 25 61  2  0
 26 31  1  0
 26 60  1  1
 27 34  1  0
 27 28  1  1
 29 30  1  6
 29 33  1  0
 30 32  1  0
 31 32  1  0
 31 64  1  1
 33 37  1  0
 34 35  2  0
 35 40  1  0
 35 36  1  0
 37 39  1  0
 37 57  1  1
 38 39  1  0
 39 43  2  0
 40 41  1  0
 40 54  1  1
 41 46  1  0
 41 42  1  6
 42 45  1  0
 43 44  1  0
 44 51  2  0
 46 47  1  0
 46 53  2  0
 47 48  1  0
 47 55  1  6
 48 52  1  0
 49 50  2  0
 49 52  1  0
 50 51  1  0
 52 56  1  6
 57 58  1  0
 62 65  1  0
M  END
>  <Formula>  (421) 
C51H79NO13

>  <FW>  (421) 
914.1719

>  <DSSTox_CID>  (421) 
3582

>  <NR-Aromatase>  (421) 
1

>  <NR-AR>  (421) 
0

>  <NR-ER-LBD>  (421) 
0

>  <NR-AhR>  (421) 
0

>  <SR-MMP>  (421) 
1

$$$$
NCGC00167566-01
     RDKit          2D

 35 39  0  0  0  0  0  0  0  0999 V2000
    2.8773   -2.8974    0.0000 C   0  0  0  0  0  0  0  0  0  0  0  0
    2.1630   -2.4949    0.0000 C   0  0  0  0  0  0  0  0  0  0  0  0
    2.8773   -3.7223    0.0000 C   0  0  0  0  0  0  0  0  0  0  0  0
    3.6016   -2.4849    0.0000 C   0  0  0  0  0  0  0  0  0  0  0  0
    2.1630   -4.1449    0.0000 O   0  0  0  0  0  0  0  0  0  0  0  0
    1.4286   -2.8974    0.0000 C   0  0  0  0  0  0  0  0  0  0  0  0
    1.4286   -3.7223    0.0000 C   0  0  0  0  0  0  0  0  0  0  0  0
    4.3058   -2.8873    0.0000 C   0  0  0  0  0  0  0  0  0  0  0  0
    3.6016   -4.1549    0.0000 O   0  0  0  0  0  0  0  0  0  0  0  0
    5.0302   -2.4849    0.0000 C   0  0  0  0  0  0  0  0  0  0  0  0
    3.6016   -1.6600    0.0000 C   0  0  0  0  0  0  0  0  0  0  0  0
    5.7545   -2.8873    0.0000 C   0  0  0  0  0  0  0  0  0  0  0  0
    7.1830   -3.7123    0.0000 C   0  0  0  0  0  0  0  0  0  0  0  0
    7.8973   -4.1348    0.0000 C   0  0  0  0  0  0  0  0  0  0  0  0
    2.1630   -1.6600    0.0000 O   0  0  0  0  0  0  0  0  0  0  0  0
    5.7545   -3.7123    0.0000 C   0  0  0  0  0  0  0  0  0  0  0  0
    6.4587   -2.4849    0.0000 C   0  0  0  0  0  0  0  0  0  0  0  0
    7.1830   -2.8873    0.0000 C   0  0  0  0  0  0  0  0  0  0  0  0
    6.4587   -4.1348    0.0000 C   0  0  0  0  0  0  0  0  0  0  0  0
    8.6318   -3.7123    0.0000 C   0  0  0  0  0  0  0  0  0  0  0  0
    7.8973   -4.9597    0.0000 C   0  0  0  0  0  0  0  0  0  0  0  0
    9.3360   -4.9597    0.0000 C   0  0  0  0  0  0  0  0  0  0  0  0
    8.6318   -5.3722    0.0000 C   0  0  0  0  0  0  0  0  0  0  0  0
    9.3360   -4.1348    0.0000 C   0  0  0  0  0  0  0  0  0  0  0  0
    5.0302   -1.6499    0.0000 O   0  0  0  0  0  0  0  0  0  0  0  0
   10.0603   -5.3823    0.0000 Br  0  0  0  0  0  0  0  0  0  0  0  0
    0.7243   -2.4949    0.0000 C   0  0  0  0  0  0  0  0  0  0  0  0
    0.7243   -4.1449    0.0000 C   0  0  0  0  0  0  0  0  0  0  0  0
    4.3058   -1.2475    0.0000 C   0  0  0  0  0  0  0  0  0  0  0  0
    2.8773   -1.2475    0.0000 C   0  0  0  0  0  0  0  0  0  0  0  0
    0.0000   -2.8974    0.0000 C   0  0  0  0  0  0  0  0  0  0  0  0
    0.0000   -3.7223    0.0000 C   0  0  0  0  0  0  0  0  0  0  0  0
    2.8773   -0.4125    0.0000 C   0  0  0  0  0  0  0  0  0  0  0  0
    4.3058   -0.4125    0.0000 C   0  0  0  0  0  0  0  0  0  0  0  0
    3.6016    0.0000    0.0000 C   0  0  0  0  0  0  0  0  0  0  0  0
  1  2  2  0
  1  3  1  0
  1  4  1  0
  2  6  1  0
  2 15  1  0
  3  5  1  0
  3  9  2  0
  4  8  1  0
  4 11  1  0
  5  7  1  0
  6 27  2  0
  6  7  1  0
  7 28  2  0
  8 10  1  0
 10 12  1  0
 10 25  1  0
 11 29  2  0
 11 30  1  0
 12 16  2  0
 12 17  1  0
 13 18  1  0
 13 14  1  0
 13 19  2  0
 14 20  2  0
 14 21  1  0
 16 19  1  0
 17 18  2  0
 20 24  1  0
 21 23  2  0
 22 23  1  0
 22 26  1  0
 22 24  2  0
 27 31  1  0
 28 32  1  0
 29 34  1  0
 30 33  2  0
 31 32  2  0
 33 35  1  0
 34 35  2  0
M  END
>  <Formula>  (422) 
C30H23BrO4

>  <FW>  (422) 
527.4052

>  <DSSTox_CID>  (422) 
12589

>  <NR-Aromatase>  (422) 
0

>  <NR-AR>  (422) 
0

>  <NR-ER>  (422) 
0

>  <NR-ER-LBD>  (422) 
0

>  <NR-PPAR-gamma>  (422) 
1

>  <SR-MMP>  (422) 
1

$$$$
NCGC00253992-01
     RDKit          2D

 55 59  0  0  1  0  0  0  0  0999 V2000
    7.1196   -7.4084    0.0000 C   0  0  0  0  0  0  0  0  0  0  0  0
    7.1196   -8.2249    0.0000 C   0  0  0  0  0  0  0  0  0  0  0  0
    6.4027   -6.9902    0.0000 C   0  0  0  0  0  0  0  0  0  0  0  0
    6.4027   -8.6332    0.0000 C   0  0  0  0  0  0  0  0  0  0  0  0
    5.6957   -7.4084    0.0000 C   0  0  0  0  0  0  0  0  0  0  0  0
    5.6957   -8.2249    0.0000 C   0  0  0  0  0  0  0  0  0  0  0  0
    7.8365   -6.9902    0.0000 C   0  0  0  0  0  0  0  0  0  0  0  0
    8.5436   -7.4084    0.0000 C   0  0  0  0  0  0  0  0  0  0  0  0
    7.8365   -8.6332    0.0000 C   0  0  0  0  0  0  0  0  0  0  0  0
    8.5436   -8.2249    0.0000 C   0  0  0  0  0  0  0  0  0  0  0  0
    4.9787   -6.9902    0.0000 S   0  0  0  0  0  0  0  0  0  0  0  0
    9.2505   -8.6332    0.0000 O   0  0  0  0  0  0  0  0  0  0  0  0
    9.9575   -8.2249    0.0000 C   0  0  0  0  0  0  0  0  0  0  0  0
    4.9787   -6.1637    0.0000 N   0  0  0  0  0  0  0  0  0  0  0  0
    4.2618   -5.7554    0.0000 C   0  0  0  0  0  0  0  0  0  0  0  0
    3.5548   -6.1637    0.0000 C   0  0  0  0  0  0  0  0  0  0  0  0
    3.5548   -6.9902    0.0000 C   0  0  0  0  0  0  0  0  0  0  0  0
    2.8479   -5.7455    0.0000 C   0  0  0  0  0  0  0  0  0  0  0  0
    2.8479   -7.3885    0.0000 C   0  0  0  0  0  0  0  0  0  0  0  0
    2.1408   -6.1637    0.0000 C   0  0  0  0  0  0  0  0  0  0  0  0
    2.1408   -6.9902    0.0000 C   0  0  0  0  0  0  0  0  0  0  0  0
    1.3542   -5.9148    0.0000 O   0  0  0  0  0  0  0  0  0  0  0  0
    0.8663   -6.5620    0.0000 C   0  0  0  0  0  0  0  0  0  0  0  0
    1.3542   -7.2491    0.0000 O   0  0  0  0  0  0  0  0  0  0  0  0
    4.2618   -4.9290    0.0000 C   0  0  0  0  0  0  0  0  0  0  0  0
    3.5548   -4.5207    0.0000 C   0  0  0  0  0  0  0  0  0  0  0  0
    3.5548   -3.7042    0.0000 N   0  0  0  0  0  0  0  0  0  0  0  0
    2.8479   -4.9190    0.0000 O   0  0  0  0  0  0  0  0  0  0  0  0
    2.8479   -3.2760    0.0000 C   0  0  0  0  0  0  0  0  0  0  0  0
    4.2618   -7.4084    0.0000 O   0  0  0  0  0  0  0  0  0  0  0  0
    4.9787   -7.8067    0.0000 O   0  0  0  0  0  0  0  0  0  0  0  0
    2.8479   -2.4595    0.0000 C   0  0  0  0  0  0  0  0  0  0  0  0
    2.1408   -3.7042    0.0000 C   0  0  0  0  0  0  0  0  0  0  0  0
    1.4239   -3.2760    0.0000 N   0  0  0  0  0  0  0  0  0  0  0  0
    0.7170   -3.7042    0.0000 C   0  0  0  0  0  0  0  0  0  0  0  0
    1.4239   -2.4595    0.0000 C   0  0  0  0  0  0  0  0  0  0  0  0
    0.0000   -3.2760    0.0000 C   0  0  0  0  0  0  0  0  0  0  0  0
    0.7170   -4.5207    0.0000 C   0  0  0  0  0  0  0  0  0  0  0  0
    2.1408   -4.5207    0.0000 O   0  0  0  0  0  0  0  0  0  0  0  0
    3.5548   -2.0612    0.0000 C   0  0  0  0  0  0  0  0  0  0  0  0
    3.5548   -1.2348    0.0000 C   0  0  0  0  0  0  0  0  0  0  0  0
    4.2618   -2.4695    0.0000 C   0  0  0  0  0  0  0  0  0  0  0  0
    4.2618   -0.8265    0.0000 C   0  0  0  0  0  0  0  0  0  0  0  0
    4.9787   -2.0612    0.0000 C   0  0  0  0  0  0  0  0  0  0  0  0
    4.9787   -1.2348    0.0000 C   0  0  0  0  0  0  0  0  0  0  0  0
    5.6957   -0.8265    0.0000 C   0  0  0  0  0  0  0  0  0  0  0  0
    6.4027   -1.2348    0.0000 N   0  0  0  0  0  0  0  0  0  0  0  0
    7.1196   -0.8265    0.0000 C   0  0  0  0  0  0  0  0  0  0  0  0
    6.4027   -2.0612    0.0000 C   0  0  0  0  0  0  0  0  0  0  0  0
    7.8365   -1.2348    0.0000 C   0  0  0  0  0  0  0  0  0  0  0  0
    7.1196   -2.4695    0.0000 C   0  0  0  0  0  0  0  0  0  0  0  0
    7.8365   -2.0612    0.0000 C   0  0  0  0  0  0  0  0  0  0  0  0
    7.1196    0.0000    0.0000 C   0  0  0  0  0  0  0  0  0  0  0  0
    5.6957   -2.4695    0.0000 C   0  0  0  0  0  0  0  0  0  0  0  0
    6.5720   -4.6402    0.0000 Cl  0  0  0  0  0  0  0  0  0  0  0  0
  1  3  2  0
  1  7  1  0
  1  2  1  0
  2  4  2  0
  2  9  1  0
  3  5  1  0
  4  6  1  0
  5  6  2  0
  5 11  1  0
  7  8  2  0
  8 10  1  0
  9 10  2  0
 10 12  1  0
 11 14  1  0
 11 30  2  0
 11 31  2  0
 12 13  1  0
 15 14  1  0
 15 16  1  0
 15 25  1  1
 16 17  2  0
 16 18  1  0
 17 19  1  0
 18 20  2  0
 19 21  2  0
 20 21  1  0
 20 22  1  0
 21 24  1  0
 22 23  1  0
 23 24  1  0
 25 26  1  0
 26 27  1  0
 26 28  2  0
 29 27  1  0
 29 32  1  1
 29 33  1  0
 32 40  1  0
 33 34  1  0
 33 39  2  0
 34 35  1  0
 34 36  1  0
 35 37  1  0
 35 38  1  0
 40 41  2  0
 40 42  1  0
 41 43  1  0
 42 44  2  0
 43 45  2  0
 44 45  1  0
 45 46  1  0
 46 47  1  0
 47 48  1  0
 47 49  1  0
 48 50  1  0
 48 53  1  1
 49 51  1  0
 49 54  1  1
 50 52  1  0
 51 52  1  0
M  END
>  <Formula>  (423) 
C42H53ClN4O7S

>  <FW>  (423) 
793.4108 (756.9499+36.4609)

>  <DSSTox_CID>  (423) 
27351

>  <NR-AR>  (423) 
0

>  <NR-AR-LBD>  (423) 
0

>  <NR-AhR>  (423) 
0

>  <SR-HSE>  (423) 
0

>  <SR-MMP>  (423) 
1

$$$$
NCGC00255218-01
     RDKit          2D

 45 50  0  0  0  0  0  0  0  0999 V2000
    4.9844   -4.5245    0.0000 C   0  0  0  0  0  0  0  0  0  0  0  0
    4.9844   -3.7165    0.0000 C   0  0  0  0  0  0  0  0  0  0  0  0
    5.7053   -3.2939    0.0000 C   0  0  0  0  0  0  0  0  0  0  0  0
    5.7053   -4.9471    0.0000 C   0  0  0  0  0  0  0  0  0  0  0  0
    6.4138   -4.5245    0.0000 C   0  0  0  0  0  0  0  0  0  0  0  0
    6.4138   -3.7165    0.0000 C   0  0  0  0  0  0  0  0  0  0  0  0
    7.1969   -3.4679    0.0000 N   0  0  0  0  0  0  0  0  0  0  0  0
    7.6817   -4.1267    0.0000 C   0  0  0  0  0  0  0  0  0  0  0  0
    7.1969   -4.7979    0.0000 N   0  0  0  0  0  0  0  0  0  0  0  0
    8.5144   -4.1267    0.0000 O   0  0  0  0  0  0  0  0  0  0  0  0
    8.9122   -4.8476    0.0000 C   0  0  0  0  0  0  0  0  0  0  0  0
    9.7450   -4.8476    0.0000 C   0  0  0  0  0  0  0  0  0  0  0  0
    7.5076   -2.6973    0.0000 C   0  0  0  0  0  0  0  0  0  0  0  0
    8.3156   -2.6973    0.0000 C   0  0  0  0  0  0  0  0  0  0  0  0
    8.7133   -1.9639    0.0000 C   0  0  0  0  0  0  0  0  0  0  0  0
    9.5461   -1.9639    0.0000 C   0  0  0  0  0  0  0  0  0  0  0  0
    9.9563   -2.6973    0.0000 C   0  0  0  0  0  0  0  0  0  0  0  0
    9.5461   -3.3933    0.0000 C   0  0  0  0  0  0  0  0  0  0  0  0
    8.7133   -3.3933    0.0000 C   0  0  0  0  0  0  0  0  0  0  0  0
   10.7891   -2.6973    0.0000 C   0  0  0  0  0  0  0  0  0  0  0  0
   11.1869   -1.9639    0.0000 C   0  0  0  0  0  0  0  0  0  0  0  0
   12.0072   -1.9639    0.0000 C   0  0  0  0  0  0  0  0  0  0  0  0
   12.4299   -2.6973    0.0000 C   0  0  0  0  0  0  0  0  0  0  0  0
   12.0072   -3.3933    0.0000 C   0  0  0  0  0  0  0  0  0  0  0  0
   11.1869   -3.3933    0.0000 C   0  0  0  0  0  0  0  0  0  0  0  0
   10.7891   -1.2678    0.0000 C   0  0  0  0  0  0  0  0  0  0  0  0
    9.9563   -1.2678    0.0000 N   0  0  0  0  0  0  0  0  0  0  0  0
    9.7077   -0.4848    0.0000 N   0  0  0  0  0  0  0  0  0  0  0  0
   10.3665    0.0000    0.0000 N   0  0  0  0  0  0  0  0  0  0  0  0
   11.0253   -0.4848    0.0000 N   0  0  0  0  0  0  0  0  0  0  0  0
    5.7053   -2.4611    0.0000 C   0  0  0  0  0  0  0  0  0  0  0  0
    4.9844   -2.0634    0.0000 O   0  0  0  0  0  0  0  0  0  0  0  0
    6.4138   -2.0634    0.0000 O   0  0  0  0  0  0  0  0  0  0  0  0
    4.2759   -2.4611    0.0000 C   0  0  0  0  0  0  0  0  0  0  0  0
    3.5550   -2.0634    0.0000 O   0  0  0  0  0  0  0  0  0  0  0  0
    2.8340   -2.4611    0.0000 C   0  0  0  0  0  0  0  0  0  0  0  0
    2.1379   -2.0634    0.0000 O   0  0  0  0  0  0  0  0  0  0  0  0
    1.4295   -2.4611    0.0000 C   0  0  0  0  0  0  0  0  0  0  0  0
    4.2759   -3.2939    0.0000 C   0  0  0  0  0  0  0  0  0  0  0  0
    2.8340   -3.2939    0.0000 O   0  0  0  0  0  0  0  0  0  0  0  0
    1.4295   -3.2939    0.0000 C   0  0  0  0  0  0  0  0  0  0  0  0
    0.7085   -3.7165    0.0000 C   0  0  0  0  0  0  0  0  0  0  0  0
    0.0000   -3.2939    0.0000 C   0  0  0  0  0  0  0  0  0  0  0  0
    0.0000   -2.4611    0.0000 C   0  0  0  0  0  0  0  0  0  0  0  0
    0.7085   -2.0634    0.0000 C   0  0  0  0  0  0  0  0  0  0  0  0
  1  2  2  0
  1  4  1  0
  2  3  1  0
  3  6  2  0
  3 31  1  0
  4  5  2  0
  5  6  1  0
  5  9  1  0
  6  7  1  0
  7 13  1  0
  7  8  1  0
  8 10  1  0
  8  9  2  0
 10 11  1  0
 11 12  1  0
 13 14  1  0
 14 15  2  0
 14 19  1  0
 15 16  1  0
 16 17  2  0
 17 18  1  0
 17 20  1  0
 18 19  2  0
 20 25  2  0
 20 21  1  0
 21 22  2  0
 21 26  1  0
 22 23  1  0
 23 24  2  0
 24 25  1  0
 26 27  2  0
 26 30  1  0
 27 28  1  0
 28 29  2  0
 29 30  1  0
 31 32  1  0
 31 33  2  0
 32 34  1  0
 34 35  1  0
 34 39  1  0
 35 36  1  0
 36 37  1  0
 36 40  2  0
 37 38  1  0
 38 41  1  0
 38 45  1  0
 41 42  1  0
 42 43  1  0
 43 44  1  0
 44 45  1  0
M  END
>  <Formula>  (424) 
C33H34N6O6

>  <FW>  (424) 
610.6597

>  <DSSTox_CID>  (424) 
239

>  <NR-AR>  (424) 
0

>  <NR-AR-LBD>  (424) 
0

>  <NR-AhR>  (424) 
0

>  <SR-ATAD5>  (424) 
0

>  <SR-MMP>  (424) 
1

$$$$
NCGC00167512-01
     RDKit          2D

 68 71  0  0  1  0  0  0  0  0999 V2000
    3.5678   -2.8928    0.0000 C   0  0  0  0  0  0  0  0  0  0  0  0
    3.5678   -3.7178    0.0000 O   0  0  0  0  0  0  0  0  0  0  0  0
    2.8606   -2.4749    0.0000 C   0  0  0  0  0  0  0  0  0  0  0  0
    2.8606   -4.1249    0.0000 O   0  0  0  0  0  0  0  0  0  0  0  0
    2.1536   -2.8928    0.0000 N   0  0  0  0  0  0  0  0  0  0  0  0
    2.1536   -3.7178    0.0000 C   0  0  0  0  0  0  0  0  0  0  0  0
    4.2963   -2.4749    0.0000 O   0  0  0  0  0  0  0  0  0  0  0  0
    4.9928   -2.8928    0.0000 C   0  0  0  0  0  0  0  0  0  0  0  0
    4.9928   -3.7178    0.0000 C   0  0  0  0  0  0  0  0  0  0  0  0
    5.7106   -2.4749    0.0000 C   0  0  0  0  0  0  0  0  0  0  0  0
    6.4177   -2.8928    0.0000 C   0  0  0  0  0  0  0  0  0  0  0  0
    5.7106   -4.1249    0.0000 C   0  0  0  0  0  0  0  0  0  0  0  0
    2.8606   -1.6499    0.0000 C   0  0  0  0  0  0  0  0  0  0  0  0
    2.1536   -1.2429    0.0000 C   0  0  0  0  0  0  0  0  0  0  0  0
    1.4357   -2.4749    0.0000 C   0  0  0  0  0  0  0  0  0  0  0  0
    1.4357   -1.6499    0.0000 C   0  0  0  0  0  0  0  0  0  0  0  0
    5.7106   -1.6499    0.0000 C   0  0  0  0  0  0  0  0  0  0  0  0
    6.4177   -1.2429    0.0000 C   0  0  0  0  0  0  0  0  0  0  0  0
    7.1463   -1.6499    0.0000 C   0  0  0  0  0  0  0  0  0  0  0  0
    6.4177   -0.4179    0.0000 C   0  0  0  0  0  0  0  0  0  0  0  0
    7.1463    0.0000    0.0000 C   0  0  0  0  0  0  0  0  0  0  0  0
    7.8534   -1.2429    0.0000 C   0  0  0  0  0  0  0  0  0  0  0  0
    7.8534   -0.4179    0.0000 C   0  0  0  0  0  0  0  0  0  0  0  0
    2.1536   -5.3463    0.0000 O   0  0  0  0  0  0  0  0  0  0  0  0
    1.4357   -4.1249    0.0000 C   0  0  0  0  0  0  0  0  0  0  0  0
    1.4357   -4.9499    0.0000 C   0  0  0  0  0  0  0  0  0  0  0  0
    5.7106   -4.9499    0.0000 C   0  0  0  0  0  0  0  0  0  0  0  0
    4.9928   -5.3463    0.0000 C   0  0  0  0  0  0  0  0  0  0  0  0
    2.1428   -6.1820    0.0000 C   0  0  0  0  0  0  0  0  0  0  0  0
    1.4357   -6.5999    0.0000 C   0  0  0  0  0  0  0  0  0  0  0  0
    0.7179   -5.3463    0.0000 C   0  0  0  0  0  0  0  0  0  0  0  0
    0.7179   -6.1820    0.0000 C   0  0  0  0  0  0  0  0  0  0  0  0
    2.8606   -6.5999    0.0000 C   0  0  0  0  0  0  0  0  0  0  0  0
    6.4177   -5.3463    0.0000 C   0  0  0  0  0  0  0  0  0  0  0  0
    6.4177   -6.1820    0.0000 C   0  0  0  0  0  0  0  0  0  0  0  0
    5.7106   -6.5999    0.0000 C   0  0  0  0  0  0  0  0  0  0  0  0
    2.8606   -7.4249    0.0000 C   0  0  0  0  0  0  0  0  0  0  0  0
    4.2963   -7.4249    0.0000 C   0  0  0  0  0  0  0  0  0  0  0  0
    3.5785   -7.8427    0.0000 C   0  0  0  0  0  0  0  0  0  0  0  0
    7.1463   -6.5999    0.0000 C   0  0  0  0  0  0  0  0  0  0  0  0
    7.1463   -7.4249    0.0000 C   0  0  0  0  0  0  0  0  0  0  0  0
    6.4177   -7.8320    0.0000 O   0  0  0  0  0  0  0  0  0  0  0  0
    3.5785   -8.6570    0.0000 C   0  0  0  0  0  0  0  0  0  0  0  0
    4.2963   -9.0748    0.0000 C   0  0  0  0  0  0  0  0  0  0  0  0
    6.4177   -8.6570    0.0000 C   0  0  0  0  0  0  0  0  0  0  0  0
    7.8534   -7.8320    0.0000 C   0  0  0  0  0  0  0  0  0  0  0  0
    7.8534   -8.6570    0.0000 C   0  0  0  0  0  0  0  0  0  0  0  0
    7.1463   -9.0748    0.0000 C   0  0  0  0  0  0  0  0  0  0  0  0
    5.7106   -9.8998    0.0000 C   0  0  0  0  0  0  0  0  0  0  0  0
    4.9928  -10.3070    0.0000 C   0  0  0  0  0  0  0  0  0  0  0  0
    4.2963   -9.8998    0.0000 C   0  0  0  0  0  0  0  0  0  0  0  0
    6.7499   -9.8998    0.0000 C   0  0  0  0  0  0  0  0  0  0  0  0
    8.5713   -7.4249    0.0000 O   0  0  0  0  0  0  0  0  0  0  0  0
    7.8534   -6.1820    0.0000 O   0  0  0  0  0  0  0  0  0  0  0  0
    8.5713   -9.0748    0.0000 C   0  0  0  0  0  0  0  0  0  0  0  0
    7.1998  -10.5962    0.0000 C   0  0  0  0  0  0  0  0  0  0  0  0
    2.1536   -7.8427    0.0000 O   0  0  0  0  0  0  0  0  0  0  0  0
    2.1536   -8.6677    0.0000 C   0  0  0  0  0  0  0  0  0  0  0  0
    6.4177   -3.7178    0.0000 O   0  0  0  0  0  0  0  0  0  0  0  0
    0.7179   -4.5321    0.0000 O   0  0  0  0  0  0  0  0  0  0  0  0
    0.7179   -3.7071    0.0000 O   0  0  0  0  0  0  0  0  0  0  0  0
    8.5713   -1.6499    0.0000 O   0  0  0  0  0  0  0  0  0  0  0  0
    8.5713   -0.0107    0.0000 O   0  0  0  0  0  0  0  0  0  0  0  0
    0.0000   -4.9499    0.0000 C   0  0  0  0  0  0  0  0  0  0  0  0
    8.5713   -2.4749    0.0000 C   0  0  0  0  0  0  0  0  0  0  0  0
    9.2784   -0.4286    0.0000 C   0  0  0  0  0  0  0  0  0  0  0  0
   10.0069   -0.0322    0.0000 C   0  0  0  0  0  0  0  0  0  0  0  0
   10.7141   -0.4500    0.0000 O   0  0  0  0  0  0  0  0  0  0  0  0
  1  3  1  0
  1  7  1  0
  1  2  2  0
  3 13  1  1
  3  5  1  0
  4  6  2  0
  5  6  1  0
  5 15  1  0
  6 25  1  0
  7  8  1  0
  8 10  1  0
  8  9  1  6
  9 12  1  0
 10 17  1  0
 10 11  1  1
 12 27  1  0
 12 59  2  0
 13 14  1  0
 14 16  1  0
 15 16  1  0
 18 17  1  6
 18 20  1  0
 18 19  1  0
 19 22  1  0
 20 21  1  0
 21 23  1  0
 22 23  1  0
 22 62  1  6
 23 63  1  1
 24 26  1  0
 24 29  1  0
 25 26  1  0
 25 61  2  0
 26 31  1  0
 26 60  1  1
 27 34  1  0
 27 28  1  1
 29 30  1  6
 29 33  1  0
 30 32  1  0
 31 32  1  0
 31 64  1  1
 33 37  1  0
 34 35  2  0
 35 40  1  0
 35 36  1  0
 37 39  1  0
 37 57  1  1
 38 39  1  0
 39 43  2  0
 40 41  1  0
 40 54  1  1
 41 46  1  0
 41 42  1  6
 42 45  1  0
 43 44  1  0
 44 51  2  0
 46 47  1  0
 46 53  2  0
 47 48  1  0
 47 55  1  6
 48 52  1  0
 49 50  2  0
 49 52  1  0
 50 51  1  0
 52 56  1  6
 57 58  1  0
 62 65  1  0
 63 66  1  0
 66 67  1  0
 67 68  1  0
M  END
>  <Formula>  (425) 
C53H83NO14

>  <FW>  (425) 
958.2244

>  <DSSTox_CID>  (425) 
20599

>  <NR-Aromatase>  (425) 
1

>  <NR-AR>  (425) 
0

>  <NR-ER>  (425) 
0

>  <NR-AhR>  (425) 
0

>  <SR-MMP>  (425) 
1

$$$$
NCGC00181319-01
     RDKit          2D

 76 83  0  0  1  0  0  0  0  0999 V2000
    7.8792   -2.4741    0.0000 C   0  0  0  0  0  0  0  0  0  0  0  0
    8.5884   -2.8838    0.0000 C   0  0  0  0  0  0  0  0  0  0  0  0
    9.2975   -1.6389    0.0000 C   0  0  0  0  0  0  0  0  0  0  0  0
    9.2975   -2.4741    0.0000 C   0  0  0  0  0  0  0  0  0  0  0  0
    6.4452   -2.4741    0.0000 C   0  0  0  0  0  0  0  0  0  0  0  0
    7.1543   -2.8838    0.0000 C   0  0  0  0  0  0  0  0  0  0  0  0
    5.7203   -2.8838    0.0000 C   0  0  0  0  0  0  0  0  0  0  0  0
   10.7315   -1.6389    0.0000 C   0  0  0  0  0  0  0  0  0  0  0  0
    7.8792   -1.6389    0.0000 C   0  0  0  0  0  0  0  0  0  0  0  0
    5.0112   -2.4741    0.0000 C   0  0  0  0  0  0  0  0  0  0  0  0
    5.0112   -1.6389    0.0000 C   0  0  0  0  0  0  0  0  0  0  0  0
   10.0066   -1.2449    0.0000 C   0  0  0  0  0  0  0  0  0  0  0  0
    6.4452   -1.6389    0.0000 C   0  0  0  0  0  0  0  0  0  0  0  0
    8.5884   -1.2449    0.0000 C   0  0  0  0  0  0  0  0  0  0  0  0
   11.4406   -1.2449    0.0000 C   0  0  0  0  0  0  0  0  0  0  0  0
   10.0066   -2.8838    0.0000 O   0  0  0  0  0  0  0  0  0  0  0  0
    7.1543   -1.2449    0.0000 C   0  0  0  0  0  0  0  0  0  0  0  0
    5.7203   -1.2449    0.0000 C   0  0  0  0  0  0  0  0  0  0  0  0
    4.2863   -1.2449    0.0000 O   0  0  0  0  0  0  0  0  0  0  0  0
    8.5884   -3.7190    0.0000 O   0  0  0  0  0  0  0  0  0  0  0  0
   10.7315   -2.4741    0.0000 O   0  0  0  0  0  0  0  0  0  0  0  0
    7.1543   -3.7190    0.0000 O   0  0  0  0  0  0  0  0  0  0  0  0
    5.7203   -3.7190    0.0000 O   0  0  0  0  0  0  0  0  0  0  0  0
   12.1498   -1.6389    0.0000 C   0  0  0  0  0  0  0  0  0  0  0  0
   11.4406   -0.4097    0.0000 O   0  0  0  0  0  0  0  0  0  0  0  0
   10.0066   -0.4097    0.0000 O   0  0  0  0  0  0  0  0  0  0  0  0
    4.2863   -2.8838    0.0000 C   0  0  0  0  0  0  0  0  0  0  0  0
   12.1498   -2.4741    0.0000 O   0  0  0  0  0  0  0  0  0  0  0  0
   12.8747   -1.2449    0.0000 C   0  0  0  0  0  0  0  0  0  0  0  0
   10.7315    0.0000    0.0000 C   0  0  0  0  0  0  0  0  0  0  0  0
    3.5772   -1.6389    0.0000 C   0  0  0  0  0  0  0  0  0  0  0  0
    3.5772   -2.4741    0.0000 C   0  0  0  0  0  0  0  0  0  0  0  0
    2.8681   -1.2449    0.0000 O   0  0  0  0  0  0  0  0  0  0  0  0
    2.8681   -2.8838    0.0000 C   0  0  0  0  0  0  0  0  0  0  0  0
    2.1589   -1.6389    0.0000 C   0  0  0  0  0  0  0  0  0  0  0  0
    2.1589   -2.4741    0.0000 C   0  0  0  0  0  0  0  0  0  0  0  0
    2.8681   -3.7190    0.0000 O   0  0  0  0  0  0  0  0  0  0  0  0
    1.4340   -2.8838    0.0000 O   0  0  0  0  0  0  0  0  0  0  0  0
    1.4340   -1.2449    0.0000 C   0  0  0  0  0  0  0  0  0  0  0  0
    2.1589   -4.1287    0.0000 C   0  0  0  0  0  0  0  0  0  0  0  0
    2.1589   -4.9481    0.0000 C   0  0  0  0  0  0  0  0  0  0  0  0
    1.4340   -3.7190    0.0000 O   0  0  0  0  0  0  0  0  0  0  0  0
    1.4340   -5.3736    0.0000 C   0  0  0  0  0  0  0  0  0  0  0  0
    0.7249   -4.1287    0.0000 C   0  0  0  0  0  0  0  0  0  0  0  0
    0.7249   -4.9481    0.0000 C   0  0  0  0  0  0  0  0  0  0  0  0
    1.4340   -6.1931    0.0000 O   0  0  0  0  0  0  0  0  0  0  0  0
    0.0000   -5.3736    0.0000 O   0  0  0  0  0  0  0  0  0  0  0  0
    0.0000   -3.7190    0.0000 C   0  0  0  0  0  0  0  0  0  0  0  0
   10.0066   -3.7190    0.0000 C   0  0  0  0  0  0  0  0  0  0  0  0
   10.7315   -4.1287    0.0000 C   0  0  0  0  0  0  0  0  0  0  0  0
    9.2975   -4.1287    0.0000 O   0  0  0  0  0  0  0  0  0  0  0  0
   10.7315   -4.9481    0.0000 C   0  0  0  0  0  0  0  0  0  0  0  0
    9.2975   -4.9481    0.0000 C   0  0  0  0  0  0  0  0  0  0  0  0
   10.0066   -5.3736    0.0000 C   0  0  0  0  0  0  0  0  0  0  0  0
   11.4406   -5.3736    0.0000 O   0  0  0  0  0  0  0  0  0  0  0  0
   10.0066   -6.1931    0.0000 O   0  0  0  0  0  0  0  0  0  0  0  0
    8.5884   -5.3736    0.0000 C   0  0  0  0  0  0  0  0  0  0  0  0
   12.1813   -4.9797    0.0000 C   0  0  0  0  0  0  0  0  0  0  0  0
   12.1813   -4.1603    0.0000 C   0  0  0  0  0  0  0  0  0  0  0  0
   12.8904   -5.3894    0.0000 O   0  0  0  0  0  0  0  0  0  0  0  0
   12.8904   -3.7348    0.0000 C   0  0  0  0  0  0  0  0  0  0  0  0
   13.6153   -4.9797    0.0000 C   0  0  0  0  0  0  0  0  0  0  0  0
   13.6153   -4.1603    0.0000 C   0  0  0  0  0  0  0  0  0  0  0  0
   12.8904   -2.9153    0.0000 O   0  0  0  0  0  0  0  0  0  0  0  0
   14.3245   -3.7348    0.0000 O   0  0  0  0  0  0  0  0  0  0  0  0
   14.3245   -5.3894    0.0000 C   0  0  0  0  0  0  0  0  0  0  0  0
   13.6153   -2.5056    0.0000 C   0  0  0  0  0  0  0  0  0  0  0  0
   13.6153   -1.6861    0.0000 C   0  0  0  0  0  0  0  0  0  0  0  0
   14.3245   -2.9153    0.0000 O   0  0  0  0  0  0  0  0  0  0  0  0
   14.3245   -1.2607    0.0000 C   0  0  0  0  0  0  0  0  0  0  0  0
   15.0493   -2.5056    0.0000 C   0  0  0  0  0  0  0  0  0  0  0  0
   15.0493   -1.6861    0.0000 C   0  0  0  0  0  0  0  0  0  0  0  0
   13.9148   -0.5516    0.0000 O   0  0  0  0  0  0  0  0  0  0  0  0
   14.7499   -0.5516    0.0000 C   0  0  0  0  0  0  0  0  0  0  0  0
   15.7585   -1.2607    0.0000 O   0  0  0  0  0  0  0  0  0  0  0  0
   15.7585   -2.9153    0.0000 C   0  0  0  0  0  0  0  0  0  0  0  0
  1  2  1  0
  1  6  1  0
  1  9  2  0
  2  4  1  0
  2 20  2  0
  3 14  1  0
  3 12  1  0
  3  4  1  0
  4 16  1  6
  5  6  2  0
  5  7  1  0
  5 13  1  0
  6 22  1  0
  7 10  2  0
  7 23  1  0
  8 12  1  0
  8 15  1  0
  8 21  2  0
  9 14  1  0
  9 17  1  0
 10 27  1  0
 10 11  1  0
 11 18  2  0
 11 19  1  0
 12 26  1  6
 13 17  2  0
 13 18  1  0
 15 24  1  0
 15 25  1  1
 49 16  1  1
 31 19  1  1
 24 28  1  0
 24 29  1  1
 26 30  1  0
 31 32  1  0
 31 33  1  0
 32 34  1  0
 33 35  1  0
 34 36  1  0
 34 37  1  1
 35 36  1  0
 35 39  1  1
 36 38  1  1
 40 37  1  1
 40 41  1  0
 40 42  1  0
 41 43  1  0
 42 44  1  0
 43 45  1  0
 43 46  1  1
 44 45  1  0
 44 48  1  1
 45 47  1  6
 49 50  1  0
 49 51  1  0
 50 52  1  0
 51 53  1  0
 52 54  1  0
 52 55  1  1
 53 54  1  0
 53 57  1  1
 54 56  1  6
 58 55  1  1
 58 59  1  0
 58 60  1  0
 59 61  1  0
 60 62  1  0
 61 63  1  0
 61 64  1  1
 62 63  1  0
 62 66  1  1
 63 65  1  6
 67 64  1  1
 67 68  1  0
 67 69  1  0
 68 70  1  0
 69 71  1  0
 70 72  1  0
 70 73  1  0
 70 74  1  1
 71 72  1  0
 71 76  1  1
 72 75  1  6
M  END
>  <Formula>  (426) 
C52H76O24

>  <FW>  (426) 
1085.1454

>  <DSSTox_CID>  (426) 
3492

>  <NR-Aromatase>  (426) 
1

>  <NR-AR>  (426) 
0

>  <NR-ER-LBD>  (426) 
0

>  <SR-ATAD5>  (426) 
0

>  <SR-MMP>  (426) 
1

>  <SR-p53>  (426) 
1

$$$$
NCGC00181319-05
     RDKit          2D

 76 83  0  0  1  0  0  0  0  0999 V2000
    7.8792   -2.4741    0.0000 C   0  0  0  0  0  0  0  0  0  0  0  0
    8.5884   -2.8838    0.0000 C   0  0  0  0  0  0  0  0  0  0  0  0
    9.2975   -1.6389    0.0000 C   0  0  0  0  0  0  0  0  0  0  0  0
    9.2975   -2.4741    0.0000 C   0  0  0  0  0  0  0  0  0  0  0  0
    6.4452   -2.4741    0.0000 C   0  0  0  0  0  0  0  0  0  0  0  0
    7.1543   -2.8838    0.0000 C   0  0  0  0  0  0  0  0  0  0  0  0
    5.7203   -2.8838    0.0000 C   0  0  0  0  0  0  0  0  0  0  0  0
   10.7315   -1.6389    0.0000 C   0  0  0  0  0  0  0  0  0  0  0  0
    7.8792   -1.6389    0.0000 C   0  0  0  0  0  0  0  0  0  0  0  0
    5.0112   -2.4741    0.0000 C   0  0  0  0  0  0  0  0  0  0  0  0
    5.0112   -1.6389    0.0000 C   0  0  0  0  0  0  0  0  0  0  0  0
   10.0066   -1.2449    0.0000 C   0  0  0  0  0  0  0  0  0  0  0  0
    6.4452   -1.6389    0.0000 C   0  0  0  0  0  0  0  0  0  0  0  0
    8.5884   -1.2449    0.0000 C   0  0  0  0  0  0  0  0  0  0  0  0
   11.4406   -1.2449    0.0000 C   0  0  0  0  0  0  0  0  0  0  0  0
   10.0066   -2.8838    0.0000 O   0  0  0  0  0  0  0  0  0  0  0  0
    7.1543   -1.2449    0.0000 C   0  0  0  0  0  0  0  0  0  0  0  0
    5.7203   -1.2449    0.0000 C   0  0  0  0  0  0  0  0  0  0  0  0
    4.2863   -1.2449    0.0000 O   0  0  0  0  0  0  0  0  0  0  0  0
    8.5884   -3.7190    0.0000 O   0  0  0  0  0  0  0  0  0  0  0  0
   10.7315   -2.4741    0.0000 O   0  0  0  0  0  0  0  0  0  0  0  0
    7.1543   -3.7190    0.0000 O   0  0  0  0  0  0  0  0  0  0  0  0
    5.7203   -3.7190    0.0000 O   0  0  0  0  0  0  0  0  0  0  0  0
   12.1498   -1.6389    0.0000 C   0  0  0  0  0  0  0  0  0  0  0  0
   11.4406   -0.4097    0.0000 O   0  0  0  0  0  0  0  0  0  0  0  0
   10.0066   -0.4097    0.0000 O   0  0  0  0  0  0  0  0  0  0  0  0
    4.2863   -2.8838    0.0000 C   0  0  0  0  0  0  0  0  0  0  0  0
   12.1498   -2.4741    0.0000 O   0  0  0  0  0  0  0  0  0  0  0  0
   12.8747   -1.2449    0.0000 C   0  0  0  0  0  0  0  0  0  0  0  0
   10.7315    0.0000    0.0000 C   0  0  0  0  0  0  0  0  0  0  0  0
    3.5772   -1.6389    0.0000 C   0  0  0  0  0  0  0  0  0  0  0  0
    3.5772   -2.4741    0.0000 C   0  0  0  0  0  0  0  0  0  0  0  0
    2.8681   -1.2449    0.0000 O   0  0  0  0  0  0  0  0  0  0  0  0
    2.8681   -2.8838    0.0000 C   0  0  0  0  0  0  0  0  0  0  0  0
    2.1589   -1.6389    0.0000 C   0  0  0  0  0  0  0  0  0  0  0  0
    2.1589   -2.4741    0.0000 C   0  0  0  0  0  0  0  0  0  0  0  0
    2.8681   -3.7190    0.0000 O   0  0  0  0  0  0  0  0  0  0  0  0
    1.4340   -2.8838    0.0000 O   0  0  0  0  0  0  0  0  0  0  0  0
    1.4340   -1.2449    0.0000 C   0  0  0  0  0  0  0  0  0  0  0  0
    2.1589   -4.1287    0.0000 C   0  0  0  0  0  0  0  0  0  0  0  0
    2.1589   -4.9481    0.0000 C   0  0  0  0  0  0  0  0  0  0  0  0
    1.4340   -3.7190    0.0000 O   0  0  0  0  0  0  0  0  0  0  0  0
    1.4340   -5.3736    0.0000 C   0  0  0  0  0  0  0  0  0  0  0  0
    0.7249   -4.1287    0.0000 C   0  0  0  0  0  0  0  0  0  0  0  0
    0.7249   -4.9481    0.0000 C   0  0  0  0  0  0  0  0  0  0  0  0
    1.4340   -6.1931    0.0000 O   0  0  0  0  0  0  0  0  0  0  0  0
    0.0000   -5.3736    0.0000 O   0  0  0  0  0  0  0  0  0  0  0  0
    0.0000   -3.7190    0.0000 C   0  0  0  0  0  0  0  0  0  0  0  0
   10.0066   -3.7190    0.0000 C   0  0  0  0  0  0  0  0  0  0  0  0
   10.7315   -4.1287    0.0000 C   0  0  0  0  0  0  0  0  0  0  0  0
    9.2975   -4.1287    0.0000 O   0  0  0  0  0  0  0  0  0  0  0  0
   10.7315   -4.9481    0.0000 C   0  0  0  0  0  0  0  0  0  0  0  0
    9.2975   -4.9481    0.0000 C   0  0  0  0  0  0  0  0  0  0  0  0
   10.0066   -5.3736    0.0000 C   0  0  0  0  0  0  0  0  0  0  0  0
   11.4406   -5.3736    0.0000 O   0  0  0  0  0  0  0  0  0  0  0  0
   10.0066   -6.1931    0.0000 O   0  0  0  0  0  0  0  0  0  0  0  0
    8.5884   -5.3736    0.0000 C   0  0  0  0  0  0  0  0  0  0  0  0
   12.1813   -4.9797    0.0000 C   0  0  0  0  0  0  0  0  0  0  0  0
   12.1813   -4.1603    0.0000 C   0  0  0  0  0  0  0  0  0  0  0  0
   12.8904   -5.3894    0.0000 O   0  0  0  0  0  0  0  0  0  0  0  0
   12.8904   -3.7348    0.0000 C   0  0  0  0  0  0  0  0  0  0  0  0
   13.6153   -4.9797    0.0000 C   0  0  0  0  0  0  0  0  0  0  0  0
   13.6153   -4.1603    0.0000 C   0  0  0  0  0  0  0  0  0  0  0  0
   12.8904   -2.9153    0.0000 O   0  0  0  0  0  0  0  0  0  0  0  0
   14.3245   -3.7348    0.0000 O   0  0  0  0  0  0  0  0  0  0  0  0
   14.3245   -5.3894    0.0000 C   0  0  0  0  0  0  0  0  0  0  0  0
   13.6153   -2.5056    0.0000 C   0  0  0  0  0  0  0  0  0  0  0  0
   13.6153   -1.6861    0.0000 C   0  0  0  0  0  0  0  0  0  0  0  0
   14.3245   -2.9153    0.0000 O   0  0  0  0  0  0  0  0  0  0  0  0
   14.3245   -1.2607    0.0000 C   0  0  0  0  0  0  0  0  0  0  0  0
   15.0493   -2.5056    0.0000 C   0  0  0  0  0  0  0  0  0  0  0  0
   15.0493   -1.6861    0.0000 C   0  0  0  0  0  0  0  0  0  0  0  0
   13.9148   -0.5516    0.0000 O   0  0  0  0  0  0  0  0  0  0  0  0
   14.7499   -0.5516    0.0000 C   0  0  0  0  0  0  0  0  0  0  0  0
   15.7585   -1.2607    0.0000 O   0  0  0  0  0  0  0  0  0  0  0  0
   15.7585   -2.9153    0.0000 C   0  0  0  0  0  0  0  0  0  0  0  0
  1  2  1  0
  1  6  1  0
  1  9  2  0
  2  4  1  0
  2 20  2  0
  3 14  1  0
  3 12  1  0
  3  4  1  0
  4 16  1  6
  5  6  2  0
  5  7  1  0
  5 13  1  0
  6 22  1  0
  7 10  2  0
  7 23  1  0
  8 12  1  0
  8 15  1  0
  8 21  2  0
  9 14  1  0
  9 17  1  0
 10 27  1  0
 10 11  1  0
 11 18  2  0
 11 19  1  0
 12 26  1  6
 13 17  2  0
 13 18  1  0
 15 24  1  0
 15 25  1  1
 49 16  1  1
 31 19  1  1
 24 28  1  0
 24 29  1  1
 26 30  1  0
 31 32  1  0
 31 33  1  0
 32 34  1  0
 33 35  1  0
 34 36  1  0
 34 37  1  1
 35 36  1  0
 35 39  1  1
 36 38  1  1
 40 37  1  1
 40 41  1  0
 40 42  1  0
 41 43  1  0
 42 44  1  0
 43 45  1  0
 43 46  1  1
 44 45  1  0
 44 48  1  1
 45 47  1  6
 49 50  1  0
 49 51  1  0
 50 52  1  0
 51 53  1  0
 52 54  1  0
 52 55  1  1
 53 54  1  0
 53 57  1  1
 54 56  1  6
 58 55  1  1
 58 59  1  0
 58 60  1  0
 59 61  1  0
 60 62  1  0
 61 63  1  0
 61 64  1  1
 62 63  1  0
 62 66  1  1
 63 65  1  6
 67 64  1  1
 67 68  1  0
 67 69  1  0
 68 70  1  0
 69 71  1  0
 70 72  1  0
 70 73  1  0
 70 74  1  1
 71 72  1  0
 71 76  1  1
 72 75  1  6
M  END
>  <Formula>  (427) 
C52H76O24

>  <FW>  (427) 
1085.1454

>  <DSSTox_CID>  (427) 
3492

>  <NR-Aromatase>  (427) 
1

>  <NR-AR>  (427) 
0

>  <NR-ER-LBD>  (427) 
0

>  <SR-ATAD5>  (427) 
0

>  <SR-MMP>  (427) 
1

>  <SR-p53>  (427) 
1

$$$$
NCGC00183008-01
     RDKit          2D

 34 38  0  0  0  0  0  0  0  0999 V2000
    7.3034   -1.2660    0.0000 N   0  0  0  0  0  0  0  0  0  0  0  0
    8.1254   -1.2660    0.0000 C   0  0  0  0  0  0  0  0  0  0  0  0
    8.6451   -1.9085    0.0000 C   0  0  0  0  0  0  0  0  0  0  0  0
    8.4561   -2.7211    0.0000 N   0  0  0  0  0  0  0  0  0  0  0  0
    7.7097   -3.0801    0.0000 C   0  0  0  0  0  0  0  0  0  0  0  0
    6.9728   -2.7211    0.0000 C   0  0  0  0  0  0  0  0  0  0  0  0
    6.7838   -1.9085    0.0000 C   0  0  0  0  0  0  0  0  0  0  0  0
    7.7097    0.0000    0.0000 N   0  0  0  0  0  0  0  0  0  0  0  0
    8.3805   -0.4819    0.0000 N   0  0  0  0  0  0  0  0  0  0  0  0
    7.0483   -0.4819    0.0000 C   0  0  0  0  0  0  0  0  0  0  0  0
    5.9618   -1.8424    0.0000 S   0  0  0  0  0  0  0  0  0  0  0  0
    5.6406   -2.5982    0.0000 C   0  0  0  0  0  0  0  0  0  0  0  0
    6.2642   -3.1462    0.0000 C   0  0  0  0  0  0  0  0  0  0  0  0
    7.7097   -3.9021    0.0000 C   0  0  0  0  0  0  0  0  0  0  0  0
    8.4278   -4.3178    0.0000 C   0  0  0  0  0  0  0  0  0  0  0  0
    7.0011   -4.3178    0.0000 C   0  0  0  0  0  0  0  0  0  0  0  0
    8.4278   -5.1398    0.0000 C   0  0  0  0  0  0  0  0  0  0  0  0
    7.0011   -5.1398    0.0000 C   0  0  0  0  0  0  0  0  0  0  0  0
    7.7097   -5.5555    0.0000 C   0  0  0  0  0  0  0  0  0  0  0  0
    9.1458   -3.9021    0.0000 Cl  0  0  0  0  0  0  0  0  0  0  0  0
    4.8374   -2.7778    0.0000 C   0  0  0  0  0  0  0  0  0  0  0  0
    4.5918   -3.5714    0.0000 C   0  0  0  0  0  0  0  0  0  0  0  0
    3.7793   -3.7604    0.0000 C   0  0  0  0  0  0  0  0  0  0  0  0
    3.5431   -4.5446    0.0000 C   0  0  0  0  0  0  0  0  0  0  0  0
    3.2218   -3.1462    0.0000 C   0  0  0  0  0  0  0  0  0  0  0  0
    2.7305   -4.7335    0.0000 C   0  0  0  0  0  0  0  0  0  0  0  0
    2.4188   -3.3352    0.0000 C   0  0  0  0  0  0  0  0  0  0  0  0
    2.1731   -4.1194    0.0000 C   0  0  0  0  0  0  0  0  0  0  0  0
    1.3700   -4.3084    0.0000 C   0  0  0  0  0  0  0  0  0  0  0  0
    0.8031   -3.7037    0.0000 C   0  0  0  0  0  0  0  0  0  0  0  0
    1.0487   -2.9101    0.0000 C   0  0  0  0  0  0  0  0  0  0  0  0
    0.0000   -3.8832    0.0000 C   0  0  0  0  0  0  0  0  0  0  0  0
    9.4482   -1.7290    0.0000 C   0  0  0  0  0  0  0  0  0  0  0  0
    6.2642   -0.2267    0.0000 C   0  0  0  0  0  0  0  0  0  0  0  0
  1  2  1  0
  1  7  1  0
  1 10  1  0
  2  3  1  0
  2  9  2  0
  3  4  1  0
  3 33  1  0
  4  5  2  0
  5  6  1  0
  5 14  1  0
  6  7  2  0
  6 13  1  0
  7 11  1  0
  8  9  1  0
  8 10  2  0
 10 34  1  0
 11 12  1  0
 12 13  2  0
 12 21  1  0
 14 15  2  0
 14 16  1  0
 15 17  1  0
 15 20  1  0
 16 18  2  0
 17 19  2  0
 18 19  1  0
 21 22  1  0
 22 23  1  0
 23 24  2  0
 23 25  1  0
 24 26  1  0
 25 27  2  0
 26 28  2  0
 27 28  1  0
 28 29  1  0
 29 30  1  0
 30 31  1  0
 30 32  1  0
M  END
>  <Formula>  (428) 
C28H29ClN4S

>  <FW>  (428) 
489.0747

>  <DSSTox_CID>  (428) 
312

>  <NR-Aromatase>  (428) 
1

>  <NR-AR>  (428) 
0

>  <NR-ER-LBD>  (428) 
0

>  <NR-AhR>  (428) 
0

>  <SR-ARE>  (428) 
1

>  <SR-ATAD5>  (428) 
0

>  <SR-MMP>  (428) 
1

$$$$
NCGC00167481-01
     RDKit          2D

 59 64  0  0  1  0  0  0  0  0999 V2000
    6.0630   -1.3942    0.0000 Cl  0  0  0  0  0  0  0  0  0  0  0  0
    0.0000   -5.3339    0.0000 C   0  0  0  0  0  0  0  0  0  0  0  0
    0.7163   -4.9245    0.0000 O   0  0  0  0  0  0  0  0  0  0  0  0
    1.4198   -5.3339    0.0000 C   0  0  0  0  0  0  0  0  0  0  0  0
    1.4198   -6.1525    0.0000 O   0  0  0  0  0  0  0  0  0  0  0  0
    2.1361   -4.9245    0.0000 C   0  0  0  0  0  0  0  0  0  0  0  0
    2.1361   -4.0932    0.0000 C   0  0  0  0  0  0  0  0  0  0  0  0
    1.4198   -3.6838    0.0000 C   0  0  0  0  0  0  0  0  0  0  0  0
    1.4198   -2.8652    0.0000 C   0  0  0  0  0  0  0  0  0  0  0  0
    0.7163   -2.4559    0.0000 C   0  0  0  0  0  0  0  0  0  0  0  0
    0.0000   -2.8652    0.0000 O   0  0  0  0  0  0  0  0  0  0  0  0
    0.7163   -1.6373    0.0000 C   0  0  0  0  0  0  0  0  0  0  0  0
    0.0000   -1.2279    0.0000 C   0  0  0  0  0  0  0  0  0  0  0  0
    0.0000   -0.4093    0.0000 C   0  0  0  0  0  0  0  0  0  0  0  0
    0.7163    0.0000    0.0000 C   0  0  0  0  0  0  0  0  0  0  0  0
    1.4198   -0.4093    0.0000 C   0  0  0  0  0  0  0  0  0  0  0  0
    2.1361    0.0000    0.0000 O   0  0  0  0  0  0  0  0  0  0  0  0
    1.4198   -1.2279    0.0000 C   0  0  0  0  0  0  0  0  0  0  0  0
    2.1361   -1.6373    0.0000 C   0  0  0  0  0  0  0  0  0  0  0  0
    2.8396   -1.2279    0.0000 O   0  0  0  0  0  0  0  0  0  0  0  0
    2.1361   -2.4559    0.0000 C   0  0  0  0  0  0  0  0  0  0  0  0
    2.8396   -2.8652    0.0000 C   0  0  0  0  0  0  0  0  0  0  0  0
    3.5559   -2.4559    0.0000 O   0  0  0  0  0  0  0  0  0  0  0  0
    2.8396   -3.6838    0.0000 C   0  0  0  0  0  0  0  0  0  0  0  0
    3.5559   -4.0932    0.0000 C   0  0  0  0  0  0  0  0  0  0  0  0
    3.5559   -4.9245    0.0000 C   0  0  0  0  0  0  0  0  0  0  0  0
    2.8396   -5.3339    0.0000 C   0  0  0  0  0  0  0  0  0  0  0  0
    2.3152   -5.9606    0.0000 O   0  0  0  0  0  0  0  0  0  0  0  0
    3.3640   -5.9606    0.0000 C   0  0  0  0  0  0  0  0  0  0  0  0
    3.0954   -6.7281    0.0000 C   0  0  0  0  0  0  0  0  0  0  0  0
    4.2595   -3.6838    0.0000 O   0  0  0  0  0  0  0  0  0  0  0  0
    4.9757   -4.0932    0.0000 C   0  0  0  0  0  0  0  0  0  0  0  0
    5.6792   -3.6838    0.0000 O   0  0  0  0  0  0  0  0  0  0  0  0
    6.3955   -4.0932    0.0000 C   0  0  0  0  0  0  0  0  0  0  0  0
    7.1118   -3.6838    0.0000 C   0  0  0  0  0  0  0  0  0  0  0  0
    6.3955   -4.9245    0.0000 C   0  0  0  0  0  0  0  0  0  0  0  0
    7.1118   -5.3339    0.0000 O   0  0  0  0  0  0  0  0  0  0  0  0
    7.8153   -4.9245    0.0000 C   0  0  0  0  0  0  0  0  0  0  0  0
    7.8153   -4.0932    0.0000 C   0  0  0  0  0  0  0  0  0  0  0  0
    8.5317   -3.6838    0.0000 C   0  0  0  0  0  0  0  0  0  0  0  0
    8.5317   -2.8652    0.0000 O   0  0  0  0  0  0  0  0  0  0  0  0
    9.2352   -4.0932    0.0000 C   0  0  0  0  0  0  0  0  0  0  0  0
    9.9515   -3.6838    0.0000 O   0  0  0  0  0  0  0  0  0  0  0  0
   10.6550   -4.0932    0.0000 C   0  0  0  0  0  0  0  0  0  0  0  0
   11.3713   -3.6838    0.0000 C   0  0  0  0  0  0  0  0  0  0  0  0
   12.0748   -4.0932    0.0000 C   0  0  0  0  0  0  0  0  0  0  0  0
   12.0748   -4.9245    0.0000 C   0  0  0  0  0  0  0  0  0  0  0  0
   12.7911   -5.3339    0.0000 O   0  0  0  0  0  0  0  0  0  0  0  0
   11.3713   -5.3339    0.0000 C   0  0  0  0  0  0  0  0  0  0  0  0
   11.3713   -6.1525    0.0000 C   0  0  0  0  0  0  0  0  0  0  0  0
   10.6550   -4.9245    0.0000 O   0  0  0  0  0  0  0  0  0  0  0  0
    9.2352   -4.9245    0.0000 C   0  0  0  0  0  0  0  0  0  0  0  0
    9.9515   -5.3339    0.0000 C   0  0  0  0  0  0  0  0  0  0  0  0
    8.5317   -5.3339    0.0000 O   0  0  0  0  0  0  0  0  0  0  0  0
    5.6792   -5.3339    0.0000 C   0  0  0  0  0  0  0  0  0  0  0  0
    4.9757   -4.9245    0.0000 C   0  0  0  0  0  0  0  0  0  0  0  0
    5.6792   -6.1525    0.0000 N   0  0  0  0  0  0  0  0  0  0  0  0
    6.3955   -6.5618    0.0000 C   0  0  0  0  0  0  0  0  0  0  0  0
    4.9757   -6.5618    0.0000 C   0  0  0  0  0  0  0  0  0  0  0  0
  2  3  1  0
  3  4  1  0
  4  5  2  0
  6  4  1  6
  6  7  1  0
  6 27  1  0
  7  8  1  0
  7 24  2  0
  8  9  2  0
  9 10  1  0
  9 21  1  0
 10 11  2  0
 10 12  1  0
 12 13  2  0
 12 18  1  0
 13 14  1  0
 14 15  2  0
 15 16  1  0
 16 17  1  0
 16 18  2  0
 18 19  1  0
 19 20  2  0
 19 21  1  0
 21 22  2  0
 22 23  1  0
 22 24  1  0
 24 25  1  0
 25 26  1  0
 25 31  1  1
 26 27  1  0
 27 28  1  1
 27 29  1  0
 29 30  1  0
 32 31  1  6
 32 33  1  0
 32 56  1  0
 33 34  1  0
 34 35  1  1
 34 36  1  0
 36 37  1  1
 36 55  1  0
 38 37  1  1
 38 39  1  0
 38 54  1  0
 39 40  1  0
 40 41  1  6
 40 42  1  0
 42 43  1  6
 42 52  1  0
 44 43  1  1
 44 45  1  0
 44 51  1  0
 45 46  1  0
 46 47  1  0
 47 48  2  0
 47 49  1  0
 49 50  1  6
 49 51  1  0
 52 53  1  6
 52 54  1  0
 55 56  1  0
 55 57  1  1
 57 58  1  0
 57 59  1  0
M  END
>  <Formula>  (429) 
C42H54ClNO15

>  <FW>  (429) 
848.3289 (36.4609+811.8679)

>  <DSSTox_CID>  (429) 
26658

>  <NR-Aromatase>  (429) 
1

>  <NR-AR>  (429) 
0

>  <NR-AR-LBD>  (429) 
1

>  <NR-ER>  (429) 
1

>  <SR-MMP>  (429) 
1

>  <SR-p53>  (429) 
1

$$$$
NCGC00160352-01
     RDKit          2D

 21 23  0  0  0  0  0  0  0  0999 V2000
    2.5973    0.0000    0.0000 N   0  0  0  0  0  0  0  0  0  0  0  0
    3.1816   -0.5843    0.0000 C   0  0  0  0  0  0  0  0  0  0  0  0
    3.9890   -0.4143    0.0000 O   0  0  0  0  0  0  0  0  0  0  0  0
    2.9266   -1.3703    0.0000 N   0  0  0  0  0  0  0  0  0  0  0  0
    3.4100   -2.0396    0.0000 C   0  0  0  0  0  0  0  0  0  0  0  0
    2.9266   -2.7036    0.0000 C   0  0  0  0  0  0  0  0  0  0  0  0
    3.1816   -3.4897    0.0000 C   0  0  0  0  0  0  0  0  0  0  0  0
    2.5973   -4.0739    0.0000 O   0  0  0  0  0  0  0  0  0  0  0  0
    3.9783   -3.7021    0.0000 C   0  0  0  0  0  0  0  0  0  0  0  0
    4.6210   -3.1816    0.0000 C   0  0  0  0  0  0  0  0  0  0  0  0
    5.3115   -3.6331    0.0000 C   0  0  0  0  0  0  0  0  0  0  0  0
    5.0990   -4.4298    0.0000 C   0  0  0  0  0  0  0  0  0  0  0  0
    4.2758   -4.4723    0.0000 S   0  0  0  0  0  0  0  0  0  0  0  0
    2.1405   -2.4486    0.0000 C   0  0  0  0  0  0  0  0  0  0  0  0
    1.4288   -2.8629    0.0000 C   0  0  0  0  0  0  0  0  0  0  0  0
    0.7117   -2.4486    0.0000 C   0  0  0  0  0  0  0  0  0  0  0  0
    0.7117   -1.6253    0.0000 C   0  0  0  0  0  0  0  0  0  0  0  0
    1.4288   -1.2110    0.0000 C   0  0  0  0  0  0  0  0  0  0  0  0
    2.1405   -1.6253    0.0000 C   0  0  0  0  0  0  0  0  0  0  0  0
    0.0000   -2.8629    0.0000 Cl  0  0  0  0  0  0  0  0  0  0  0  0
    4.2386   -2.0396    0.0000 O   0  0  0  0  0  0  0  0  0  0  0  0
  1  2  1  0
  2  3  2  0
  2  4  1  0
  4  5  1  0
  4 19  1  0
  5  6  2  0
  5 21  1  0
  6  7  1  0
  6 14  1  0
  7  8  2  0
  7  9  1  0
  9 10  2  0
  9 13  1  0
 10 11  1  0
 11 12  2  0
 12 13  1  0
 14 15  1  0
 14 19  2  0
 15 16  2  0
 16 17  1  0
 16 20  1  0
 17 18  2  0
 18 19  1  0
M  END
>  <Formula>  (430) 
C14H9ClN2O3S

>  <FW>  (430) 
320.7509

>  <DSSTox_CID>  (430) 
26104

>  <NR-AR>  (430) 
0

>  <NR-ER-LBD>  (430) 
0

>  <NR-AhR>  (430) 
1

>  <SR-MMP>  (430) 
1

>  <SR-p53>  (430) 
1

$$$$
NCGC00254129-01
     RDKit          2D

 45 49  0  0  0  0  0  0  0  0999 V2000
    0.3323   -6.9206    0.0000 C   0  0  0  0  0  0  0  0  0  0  0  0
    0.5843   -7.6997    0.0000 C   0  0  0  0  0  0  0  0  0  0  0  0
    1.3979   -7.8716    0.0000 C   0  0  0  0  0  0  0  0  0  0  0  0
    1.9364   -7.2529    0.0000 C   0  0  0  0  0  0  0  0  0  0  0  0
    2.7499   -7.4247    0.0000 C   0  0  0  0  0  0  0  0  0  0  0  0
    3.2999   -6.8060    0.0000 S   0  0  0  0  0  0  0  0  0  0  0  0
    3.0478   -6.0268    0.0000 C   0  0  0  0  0  0  0  0  0  0  0  0
    3.5978   -5.4081    0.0000 C   0  0  0  0  0  0  0  0  0  0  0  0
    3.3343   -4.6176    0.0000 S   0  0  0  0  0  0  0  0  0  0  0  0
    4.0103   -4.1363    0.0000 C   0  0  0  0  0  0  0  0  0  0  0  0
    4.6748   -4.6176    0.0000 N   0  0  0  0  0  0  0  0  0  0  0  0
    4.4228   -5.4081    0.0000 C   0  0  0  0  0  0  0  0  0  0  0  0
    4.8353   -6.1185    0.0000 C   0  0  0  0  0  0  0  0  0  0  0  0
    5.6488   -6.1185    0.0000 N   0  0  0  0  0  0  0  0  0  0  0  0
    6.0727   -5.4081    0.0000 C   0  0  0  0  0  0  0  0  0  0  0  0
    6.8976   -5.4081    0.0000 C   0  0  0  0  0  0  0  0  0  0  0  0
    7.3101   -6.1185    0.0000 N   0  0  0  0  0  0  0  0  0  0  0  0
    6.8976   -6.8404    0.0000 C   0  0  0  0  0  0  0  0  0  0  0  0
    6.0727   -6.8404    0.0000 C   0  0  0  0  0  0  0  0  0  0  0  0
    8.1351   -6.1185    0.0000 C   0  0  0  0  0  0  0  0  0  0  0  0
    8.5476   -5.4081    0.0000 C   0  0  0  0  0  0  0  0  0  0  0  0
    9.3726   -5.4081    0.0000 C   0  0  0  0  0  0  0  0  0  0  0  0
    9.7851   -6.1185    0.0000 C   0  0  0  0  0  0  0  0  0  0  0  0
   10.6100   -6.1185    0.0000 O   0  0  0  0  0  0  0  0  0  0  0  0
   11.0225   -5.4081    0.0000 C   0  0  0  0  0  0  0  0  0  0  0  0
    9.3726   -6.8404    0.0000 C   0  0  0  0  0  0  0  0  0  0  0  0
    8.5476   -6.8404    0.0000 C   0  0  0  0  0  0  0  0  0  0  0  0
    4.0103   -3.2999    0.0000 C   0  0  0  0  0  0  0  0  0  0  0  0
    4.7206   -2.8989    0.0000 C   0  0  0  0  0  0  0  0  0  0  0  0
    4.7206   -2.0739    0.0000 C   0  0  0  0  0  0  0  0  0  0  0  0
    4.0103   -1.6499    0.0000 C   0  0  0  0  0  0  0  0  0  0  0  0
    3.2999   -2.0739    0.0000 C   0  0  0  0  0  0  0  0  0  0  0  0
    3.2999   -2.8989    0.0000 C   0  0  0  0  0  0  0  0  0  0  0  0
    4.0103   -0.8249    0.0000 C   0  0  0  0  0  0  0  0  0  0  0  0
    3.1853   -0.8249    0.0000 F   0  0  0  0  0  0  0  0  0  0  0  0
    4.8353   -0.8249    0.0000 F   0  0  0  0  0  0  0  0  0  0  0  0
    4.0103    0.0000    0.0000 F   0  0  0  0  0  0  0  0  0  0  0  0
    3.0020   -8.2038    0.0000 C   0  0  0  0  0  0  0  0  0  0  0  0
    2.4635   -8.8226    0.0000 C   0  0  0  0  0  0  0  0  0  0  0  0
    1.6499   -8.6507    0.0000 C   0  0  0  0  0  0  0  0  0  0  0  0
    1.1000   -9.2694    0.0000 O   0  0  0  0  0  0  0  0  0  0  0  0
    1.3635  -10.0486    0.0000 C   0  0  0  0  0  0  0  0  0  0  0  0
    0.8020  -10.6673    0.0000 C   0  0  0  0  0  0  0  0  0  0  0  0
    0.0000  -10.5069    0.0000 O   0  0  0  0  0  0  0  0  0  0  0  0
    1.0656  -11.4579    0.0000 O   0  0  0  0  0  0  0  0  0  0  0  0
  1  2  1  0
  2  3  1  0
  3  4  2  0
  3 40  1  0
  4  5  1  0
  5  6  1  0
  5 38  2  0
  6  7  1  0
  7  8  1  0
  8  9  1  0
  8 12  2  0
  9 10  1  0
 10 11  2  0
 10 28  1  0
 11 12  1  0
 12 13  1  0
 13 14  1  0
 14 15  1  0
 14 19  1  0
 15 16  1  0
 16 17  1  0
 17 18  1  0
 17 20  1  0
 18 19  1  0
 20 21  2  0
 20 27  1  0
 21 22  1  0
 22 23  2  0
 23 24  1  0
 23 26  1  0
 24 25  1  0
 26 27  2  0
 28 29  2  0
 28 33  1  0
 29 30  1  0
 30 31  2  0
 31 32  1  0
 31 34  1  0
 32 33  2  0
 34 35  1  0
 34 36  1  0
 34 37  1  0
 38 39  1  0
 39 40  2  0
 40 41  1  0
 41 42  1  0
 42 43  1  0
 43 44  2  0
 43 45  1  0
M  END
>  <Formula>  (431) 
C33H34F3N3O4S2

>  <FW>  (431) 
657.7660

>  <DSSTox_CID>  (431) 
27315

>  <NR-AR>  (431) 
0

>  <NR-AR-LBD>  (431) 
0

>  <NR-ER-LBD>  (431) 
1

>  <NR-PPAR-gamma>  (431) 
1

>  <NR-AhR>  (431) 
0

>  <SR-MMP>  (431) 
1

$$$$
NCGC00260151-01
     RDKit          2D

 34 38  0  0  0  0  0  0  0  0999 V2000
    5.6475    0.0000    0.0000 O   0  0  0  0  0  0  0  0  0  0  0  0
    5.9027   -0.7825    0.0000 C   0  0  0  0  0  0  0  0  0  0  0  0
    6.7107   -0.9611    0.0000 C   0  0  0  0  0  0  0  0  0  0  0  0
    6.9659   -1.7436    0.0000 C   0  0  0  0  0  0  0  0  0  0  0  0
    6.4130   -2.3560    0.0000 C   0  0  0  0  0  0  0  0  0  0  0  0
    5.6050   -2.1859    0.0000 C   0  0  0  0  0  0  0  0  0  0  0  0
    5.3499   -1.3949    0.0000 C   0  0  0  0  0  0  0  0  0  0  0  0
    6.6682   -3.1384    0.0000 C   0  0  0  0  0  0  0  0  0  0  0  0
    7.4507   -3.3936    0.0000 S   0  0  0  0  0  0  0  0  0  0  0  0
    7.4507   -4.2187    0.0000 C   0  0  0  0  0  0  0  0  0  0  0  0
    8.0630   -4.7715    0.0000 C   0  0  0  0  0  0  0  0  0  0  0  0
    7.8929   -5.5710    0.0000 C   0  0  0  0  0  0  0  0  0  0  0  0
    8.5053   -6.1238    0.0000 O   0  0  0  0  0  0  0  0  0  0  0  0
    7.1104   -5.8261    0.0000 C   0  0  0  0  0  0  0  0  0  0  0  0
    6.4981   -5.2818    0.0000 C   0  0  0  0  0  0  0  0  0  0  0  0
    6.6682   -4.4738    0.0000 C   0  0  0  0  0  0  0  0  0  0  0  0
    6.1833   -3.8019    0.0000 C   0  0  0  0  0  0  0  0  0  0  0  0
    5.3583   -3.8019    0.0000 C   0  0  0  0  0  0  0  0  0  0  0  0
    4.9501   -3.0874    0.0000 O   0  0  0  0  0  0  0  0  0  0  0  0
    4.9501   -4.5163    0.0000 C   0  0  0  0  0  0  0  0  0  0  0  0
    5.3583   -5.2308    0.0000 C   0  0  0  0  0  0  0  0  0  0  0  0
    4.9501   -5.9452    0.0000 C   0  0  0  0  0  0  0  0  0  0  0  0
    4.1251   -5.9452    0.0000 C   0  0  0  0  0  0  0  0  0  0  0  0
    3.7083   -6.6597    0.0000 O   0  0  0  0  0  0  0  0  0  0  0  0
    2.8833   -6.6597    0.0000 C   0  0  0  0  0  0  0  0  0  0  0  0
    2.4751   -7.3741    0.0000 C   0  0  0  0  0  0  0  0  0  0  0  0
    1.6501   -7.3741    0.0000 N   0  0  0  0  0  0  0  0  0  0  0  0
    1.2333   -8.0886    0.0000 C   0  0  0  0  0  0  0  0  0  0  0  0
    0.4083   -8.0886    0.0000 C   0  0  0  0  0  0  0  0  0  0  0  0
    0.0000   -7.3741    0.0000 C   0  0  0  0  0  0  0  0  0  0  0  0
    0.4083   -6.6597    0.0000 C   0  0  0  0  0  0  0  0  0  0  0  0
    1.2333   -6.6597    0.0000 C   0  0  0  0  0  0  0  0  0  0  0  0
    3.7083   -5.2308    0.0000 C   0  0  0  0  0  0  0  0  0  0  0  0
    4.1251   -4.5163    0.0000 C   0  0  0  0  0  0  0  0  0  0  0  0
  1  2  1  0
  2  3  2  0
  2  7  1  0
  3  4  1  0
  4  5  2  0
  5  6  1  0
  5  8  1  0
  6  7  2  0
  8  9  1  0
  8 17  2  0
  9 10  1  0
 10 11  2  0
 10 16  1  0
 11 12  1  0
 12 13  1  0
 12 14  2  0
 14 15  1  0
 15 16  2  0
 16 17  1  0
 17 18  1  0
 18 19  2  0
 18 20  1  0
 20 21  2  0
 20 34  1  0
 21 22  1  0
 22 23  2  0
 23 24  1  0
 23 33  1  0
 24 25  1  0
 25 26  1  0
 26 27  1  0
 27 28  1  0
 27 32  1  0
 28 29  1  0
 29 30  1  0
 30 31  1  0
 31 32  1  0
 33 34  2  0
M  END
>  <Formula>  (432) 
C28H27NO4S

>  <FW>  (432) 
473.5833

>  <DSSTox_CID>  (432) 
3550

>  <NR-Aromatase>  (432) 
1

>  <NR-AR>  (432) 
0

>  <SR-ARE>  (432) 
0

>  <SR-ATAD5>  (432) 
0

>  <SR-HSE>  (432) 
1

>  <SR-MMP>  (432) 
1

>  <SR-p53>  (432) 
1

$$$$
NCGC00025125-07
     RDKit          2D

 29 31  0  0  1  0  0  0  0  0999 V2000
    3.5234   -2.5766    0.0000 C   0  0  0  0  0  0  0  0  0  0  0  0
    4.3281   -2.4008    0.0000 C   0  0  0  0  0  0  0  0  0  0  0  0
    2.8877   -2.0491    0.0000 C   0  0  0  0  0  0  0  0  0  0  0  0
    2.1776   -2.4616    0.0000 C   0  0  0  0  0  0  0  0  0  0  0  0
    4.9773   -2.8877    0.0000 C   0  0  0  0  0  0  0  0  0  0  0  0
    1.4472   -2.0491    0.0000 C   0  0  0  0  0  0  0  0  0  0  0  0
    3.1785   -3.3137    0.0000 C   0  0  0  0  0  0  0  0  0  0  0  0
    2.8877   -1.2240    0.0000 C   0  0  0  0  0  0  0  0  0  0  0  0
    4.9773   -3.7127    0.0000 C   0  0  0  0  0  0  0  0  0  0  0  0
    4.6730   -1.6501    0.0000 C   0  0  0  0  0  0  0  0  0  0  0  0
    1.4472   -1.2376    0.0000 C   0  0  0  0  0  0  0  0  0  0  0  0
    3.5234   -4.0508    0.0000 C   0  0  0  0  0  0  0  0  0  0  0  0
    4.3484   -4.2267    0.0000 C   0  0  0  0  0  0  0  0  0  0  0  0
    5.5251   -1.6501    0.0000 N   0  0  0  0  0  0  0  0  0  0  0  0
    2.1776   -0.8251    0.0000 C   0  0  0  0  0  0  0  0  0  0  0  0
    5.9241   -0.9400    0.0000 C   0  0  0  0  0  0  0  0  0  0  0  0
    3.5234   -0.7236    0.0000 C   0  0  0  0  0  0  0  0  0  0  0  0
    5.7280   -4.1117    0.0000 O   0  0  0  0  0  0  0  0  0  0  0  0
    4.3281   -0.9129    0.0000 C   0  0  0  0  0  0  0  0  0  0  0  0
    5.5116   -0.2097    0.0000 O   0  0  0  0  0  0  0  0  0  0  0  0
    2.1776   -3.2867    0.0000 O   0  0  0  0  0  0  0  0  0  0  0  0
    0.7101   -2.4481    0.0000 O   0  0  0  0  0  0  0  0  0  0  0  0
    0.7101   -0.8386    0.0000 O   0  0  0  0  0  0  0  0  0  0  0  0
    4.5648   -5.0247    0.0000 O   0  0  0  0  0  0  0  0  0  0  0  0
    6.7627   -0.9400    0.0000 C   0  0  0  0  0  0  0  0  0  0  0  0
    1.4405   -3.6992    0.0000 C   0  0  0  0  0  0  0  0  0  0  0  0
    0.0000   -2.0017    0.0000 C   0  0  0  0  0  0  0  0  0  0  0  0
    0.7101    0.0000    0.0000 C   0  0  0  0  0  0  0  0  0  0  0  0
    5.3155   -5.0247    0.0000 C   0  0  0  0  0  0  0  0  0  0  0  0
  1  2  1  0
  1  3  1  0
  1  7  2  0
  2  5  2  0
  2 10  1  0
  3  4  2  0
  3  8  1  0
  4  6  1  0
  4 21  1  0
  5  9  1  0
  6 22  1  0
  6 11  2  0
  7 12  1  0
  8 15  2  0
  8 17  1  0
  9 18  2  0
  9 13  1  0
 10 14  1  6
 10 19  1  0
 11 15  1  0
 11 23  1  0
 12 13  2  0
 13 24  1  0
 14 16  1  0
 16 20  2  0
 16 25  1  0
 17 19  1  0
 21 26  1  0
 22 27  1  0
 23 28  1  0
 24 29  1  0
M  END
>  <Formula>  (433) 
C22H25NO6

>  <FW>  (433) 
399.4370

>  <DSSTox_CID>  (433) 
4845

>  <NR-Aromatase>  (433) 
0

>  <NR-AR>  (433) 
0

>  <NR-ER>  (433) 
0

>  <SR-ATAD5>  (433) 
1

>  <SR-MMP>  (433) 
1

>  <SR-p53>  (433) 
0

$$$$
NCGC00162150-01
     RDKit          2D

 36 38  0  0  0  0  0  0  0  0999 V2000
    0.7163   -3.5361    0.0000 O   0  0  0  0  0  0  0  0  0  0  0  0
    1.4326   -3.9454    0.0000 C   0  0  0  0  0  0  0  0  0  0  0  0
    2.1262   -3.5361    0.0000 C   0  0  0  0  0  0  0  0  0  0  0  0
    2.8425   -3.9454    0.0000 O   0  0  0  0  0  0  0  0  0  0  0  0
    3.5588   -3.5361    0.0000 C   0  0  0  0  0  0  0  0  0  0  0  0
    3.5588   -2.7174    0.0000 O   0  0  0  0  0  0  0  0  0  0  0  0
    0.0000   -3.9454    0.0000 C   0  0  0  0  0  0  0  0  0  0  0  0
    4.2524   -3.9454    0.0000 C   0  0  0  0  0  0  0  0  0  0  0  0
    4.2524   -4.7527    0.0000 C   0  0  0  0  0  0  0  0  0  0  0  0
    4.9687   -5.1734    0.0000 N   0  0  0  0  0  0  0  0  0  0  0  0
    5.6850   -4.7527    0.0000 C   0  0  0  0  0  0  0  0  0  0  0  0
    5.6850   -3.9454    0.0000 C   0  0  0  0  0  0  0  0  0  0  0  0
    4.9687   -3.5361    0.0000 C   0  0  0  0  0  0  0  0  0  0  0  0
    3.5588   -5.1734    0.0000 C   0  0  0  0  0  0  0  0  0  0  0  0
    6.3900   -5.1734    0.0000 C   0  0  0  0  0  0  0  0  0  0  0  0
    6.3900   -3.5361    0.0000 C   0  0  0  0  0  0  0  0  0  0  0  0
    7.8226   -3.5361    0.0000 C   0  0  0  0  0  0  0  0  0  0  0  0
    8.5275   -3.9454    0.0000 C   0  0  0  0  0  0  0  0  0  0  0  0
    9.2438   -3.5361    0.0000 C   0  0  0  0  0  0  0  0  0  0  0  0
    9.9602   -3.9454    0.0000 C   0  0  0  0  0  0  0  0  0  0  0  0
    4.9687   -2.6492    0.0000 C   0  0  0  0  0  0  0  0  0  0  0  0
    5.7305   -2.2172    0.0000 C   0  0  0  0  0  0  0  0  0  0  0  0
    5.7305   -1.3303    0.0000 C   0  0  0  0  0  0  0  0  0  0  0  0
    4.9687   -0.8755    0.0000 C   0  0  0  0  0  0  0  0  0  0  0  0
    4.1955   -1.3303    0.0000 C   0  0  0  0  0  0  0  0  0  0  0  0
    4.1955   -2.2172    0.0000 C   0  0  0  0  0  0  0  0  0  0  0  0
    6.5037   -0.8755    0.0000 N   0  0  0  0  0  0  0  0  0  0  0  0
    7.2655   -1.3303    0.0000 O   0  0  0  0  0  0  0  0  0  0  0  0
    6.5037    0.0000    0.0000 O   0  0  0  0  0  0  0  0  0  0  0  0
   10.6537   -3.5361    0.0000 C   0  0  0  0  0  0  0  0  0  0  0  0
   11.3700   -3.9454    0.0000 C   0  0  0  0  0  0  0  0  0  0  0  0
   11.3700   -4.7527    0.0000 C   0  0  0  0  0  0  0  0  0  0  0  0
   10.6537   -5.1734    0.0000 C   0  0  0  0  0  0  0  0  0  0  0  0
    9.9602   -4.7527    0.0000 C   0  0  0  0  0  0  0  0  0  0  0  0
    7.0949   -3.9454    0.0000 O   0  0  0  0  0  0  0  0  0  0  0  0
    6.3900   -2.7061    0.0000 O   0  0  0  0  0  0  0  0  0  0  0  0
  1  2  1  0
  1  7  1  0
  2  3  1  0
  3  4  1  0
  4  5  1  0
  5  6  2  0
  5  8  1  0
  8 13  1  0
  8  9  2  0
  9 10  1  0
  9 14  1  0
 10 11  1  0
 11 12  2  0
 11 15  1  0
 12 13  1  0
 12 16  1  0
 13 21  1  0
 16 35  1  0
 16 36  2  0
 17 35  1  0
 17 18  1  0
 18 19  2  0
 19 20  1  0
 20 30  2  0
 20 34  1  0
 21 22  2  0
 21 26  1  0
 22 23  1  0
 23 24  2  0
 23 27  1  0
 24 25  1  0
 25 26  2  0
 27 28  1  0
 27 29  2  0
 30 31  1  0
 31 32  2  0
 32 33  1  0
 33 34  2  0
M  CHG  2  27   1  28  -1
M  END
>  <Formula>  (434) 
C27H28N2O7

>  <FW>  (434) 
492.5204

>  <DSSTox_CID>  (434) 
26309

>  <NR-AR>  (434) 
0

>  <NR-ER-LBD>  (434) 
0

>  <NR-AhR>  (434) 
1

>  <SR-MMP>  (434) 
1

>  <SR-p53>  (434) 
0

$$$$
NCGC00167493-01
     RDKit          2D

 47 49  0  0  0  0  0  0  0  0999 V2000
    2.8567   -1.6683    0.0000 C   0  0  0  0  0  0  0  0  0  0  0  0
    3.5765   -1.2455    0.0000 C   0  0  0  0  0  0  0  0  0  0  0  0
    2.1482   -1.2455    0.0000 C   0  0  0  0  0  0  0  0  0  0  0  0
    2.8567   -2.4796    0.0000 C   0  0  0  0  0  0  0  0  0  0  0  0
    3.5765   -0.4228    0.0000 C   0  0  0  0  0  0  0  0  0  0  0  0
    4.2850   -1.6683    0.0000 C   0  0  0  0  0  0  0  0  0  0  0  0
    2.1482   -0.4228    0.0000 C   0  0  0  0  0  0  0  0  0  0  0  0
    1.4397   -1.6683    0.0000 C   0  0  0  0  0  0  0  0  0  0  0  0
    3.5765   -2.8910    0.0000 C   0  0  0  0  0  0  0  0  0  0  0  0
    2.1482   -2.8910    0.0000 C   0  0  0  0  0  0  0  0  0  0  0  0
    2.8567    0.0000    0.0000 N   0  0  0  0  0  0  0  0  0  0  0  0
    4.2850    0.0000    0.0000 C   0  0  0  0  0  0  0  0  0  0  0  0
    4.9935   -1.2455    0.0000 O   0  0  0  0  0  0  0  0  0  0  0  0
    4.2850   -2.4796    0.0000 O   0  0  0  0  0  0  0  0  0  0  0  0
    1.4397    0.0000    0.0000 C   0  0  0  0  0  0  0  0  0  0  0  0
    0.7084   -1.2455    0.0000 O   0  0  0  0  0  0  0  0  0  0  0  0
    1.4397   -2.4796    0.0000 O   0  0  0  0  0  0  0  0  0  0  0  0
    3.5765   -3.7137    0.0000 C   0  0  0  0  0  0  0  0  0  0  0  0
    2.1482   -3.7137    0.0000 C   0  0  0  0  0  0  0  0  0  0  0  0
    5.7133   -1.6683    0.0000 C   0  0  0  0  0  0  0  0  0  0  0  0
    0.0000   -1.6683    0.0000 C   0  0  0  0  0  0  0  0  0  0  0  0
    2.8567   -4.1251    0.0000 C   0  0  0  0  0  0  0  0  0  0  0  0
    4.2850   -4.1251    0.0000 N   0  0  0  0  0  0  0  0  0  0  0  0
    6.4333   -1.2455    0.0000 C   0  0  0  0  0  0  0  0  0  0  0  0
    4.9935   -3.7137    0.0000 O   0  0  0  0  0  0  0  0  0  0  0  0
    4.2850   -4.9478    0.0000 O   0  0  0  0  0  0  0  0  0  0  0  0
    7.1417   -1.6683    0.0000 N   0  0  0  0  0  0  0  0  0  0  0  0
    7.8501   -1.2455    0.0000 C   0  0  0  0  0  0  0  0  0  0  0  0
    7.1417   -2.4796    0.0000 C   0  0  0  0  0  0  0  0  0  0  0  0
    8.5701   -1.6683    0.0000 C   0  0  0  0  0  0  0  0  0  0  0  0
    7.8501   -2.8910    0.0000 C   0  0  0  0  0  0  0  0  0  0  0  0
    8.5701   -2.4796    0.0000 N   0  0  0  0  0  0  0  0  0  0  0  0
    9.2785   -2.8910    0.0000 C   0  0  0  0  0  0  0  0  0  0  0  0
    9.9869   -2.4796    0.0000 C   0  0  0  0  0  0  0  0  0  0  0  0
    9.2785   -3.7137    0.0000 C   0  0  0  0  0  0  0  0  0  0  0  0
    9.9869   -1.6683    0.0000 C   0  0  0  0  0  0  0  0  0  0  0  0
   10.7068   -2.8910    0.0000 C   0  0  0  0  0  0  0  0  0  0  0  0
    9.9869   -4.1251    0.0000 C   0  0  0  0  0  0  0  0  0  0  0  0
    8.5701   -4.1251    0.0000 C   0  0  0  0  0  0  0  0  0  0  0  0
   10.7068   -1.2455    0.0000 C   0  0  0  0  0  0  0  0  0  0  0  0
   11.4267   -2.4796    0.0000 C   0  0  0  0  0  0  0  0  0  0  0  0
    9.9869   -4.9478    0.0000 C   0  0  0  0  0  0  0  0  0  0  0  0
    8.5701   -4.9478    0.0000 C   0  0  0  0  0  0  0  0  0  0  0  0
   11.4267   -1.6683    0.0000 C   0  0  0  0  0  0  0  0  0  0  0  0
    9.2785   -5.3706    0.0000 C   0  0  0  0  0  0  0  0  0  0  0  0
    5.8505   -0.1943    0.0000 Cl  0  0  0  0  0  0  0  0  0  0  0  0
    6.8789   -0.1943    0.0000 Cl  0  0  0  0  0  0  0  0  0  0  0  0
  1  2  1  0
  1  3  1  0
  1  4  1  0
  2  5  2  0
  2  6  1  0
  3  7  2  0
  3  8  1  0
  4  9  2  0
  4 10  1  0
  5 11  1  0
  5 12  1  0
  6 13  1  0
  6 14  2  0
  7 15  1  0
  7 11  1  0
  8 16  1  0
  8 17  2  0
  9 18  1  0
 10 19  2  0
 13 20  1  0
 16 21  1  0
 18 22  2  0
 18 23  1  0
 19 22  1  0
 20 24  1  0
 23 25  2  0
 23 26  1  0
 24 27  1  0
 27 28  1  0
 27 29  1  0
 28 30  1  0
 29 31  1  0
 30 32  1  0
 31 32  1  0
 32 33  1  0
 33 34  1  0
 33 35  1  0
 34 36  2  0
 34 37  1  0
 35 38  2  0
 35 39  1  0
 36 40  1  0
 37 41  2  0
 38 42  1  0
 39 43  2  0
 40 44  2  0
 41 44  1  0
 42 45  2  0
 43 45  1  0
M  CHG  2  23   1  26  -1
M  END
>  <Formula>  (435) 
C35H40Cl2N4O6

>  <FW>  (435) 
683.6213 (610.6994+36.4609+36.4609)

>  <DSSTox_CID>  (435) 
796

>  <NR-AR>  (435) 
0

>  <NR-AR-LBD>  (435) 
0

>  <NR-ER-LBD>  (435) 
0

>  <NR-AhR>  (435) 
0

>  <SR-MMP>  (435) 
1

$$$$
NCGC00164572-01
     RDKit          2D

 30 33  0  0  0  0  0  0  0  0999 V2000
    4.3983   -5.2326    0.0000 C   0  0  0  0  0  0  0  0  0  0  0  0
    3.9153   -4.5666    0.0000 C   0  0  0  0  0  0  0  0  0  0  0  0
    4.1715   -3.7836    0.0000 C   0  0  0  0  0  0  0  0  0  0  0  0
    3.5055   -3.3006    0.0000 N   0  0  0  0  0  0  0  0  0  0  0  0
    2.8395   -3.7836    0.0000 N   0  0  0  0  0  0  0  0  0  0  0  0
    3.0957   -4.5666    0.0000 C   0  0  0  0  0  0  0  0  0  0  0  0
    2.6053   -5.2326    0.0000 C   0  0  0  0  0  0  0  0  0  0  0  0
    2.9493   -5.9937    0.0000 O   0  0  0  0  0  0  0  0  0  0  0  0
    1.7857   -5.1521    0.0000 N   0  0  0  0  0  0  0  0  0  0  0  0
    1.3027   -5.8181    0.0000 N   0  0  0  0  0  0  0  0  0  0  0  0
    0.4757   -5.7303    0.0000 C   0  0  0  0  0  0  0  0  0  0  0  0
    0.0000   -6.3962    0.0000 C   0  0  0  0  0  0  0  0  0  0  0  0
    0.3293   -7.1573    0.0000 C   0  0  0  0  0  0  0  0  0  0  0  0
    1.1563   -7.2451    0.0000 C   0  0  0  0  0  0  0  0  0  0  0  0
    1.6393   -6.5645    0.0000 C   0  0  0  0  0  0  0  0  0  0  0  0
    3.5055   -2.4736    0.0000 C   0  0  0  0  0  0  0  0  0  0  0  0
    4.2227   -2.0565    0.0000 C   0  0  0  0  0  0  0  0  0  0  0  0
    4.2227   -1.2295    0.0000 C   0  0  0  0  0  0  0  0  0  0  0  0
    3.5055   -0.8197    0.0000 C   0  0  0  0  0  0  0  0  0  0  0  0
    3.5055    0.0000    0.0000 Cl  0  0  0  0  0  0  0  0  0  0  0  0
    2.7956   -1.2295    0.0000 C   0  0  0  0  0  0  0  0  0  0  0  0
    2.7956   -2.0565    0.0000 C   0  0  0  0  0  0  0  0  0  0  0  0
    2.0784   -2.4736    0.0000 Cl  0  0  0  0  0  0  0  0  0  0  0  0
    4.9618   -3.5348    0.0000 C   0  0  0  0  0  0  0  0  0  0  0  0
    5.5766   -4.0763    0.0000 C   0  0  0  0  0  0  0  0  0  0  0  0
    6.3597   -3.8202    0.0000 C   0  0  0  0  0  0  0  0  0  0  0  0
    6.5353   -3.0152    0.0000 C   0  0  0  0  0  0  0  0  0  0  0  0
    7.3184   -2.7664    0.0000 Cl  0  0  0  0  0  0  0  0  0  0  0  0
    5.9132   -2.4663    0.0000 C   0  0  0  0  0  0  0  0  0  0  0  0
    5.1301   -2.7224    0.0000 C   0  0  0  0  0  0  0  0  0  0  0  0
  1  2  1  0
  2  3  2  0
  2  6  1  0
  3  4  1  0
  3 24  1  0
  4  5  1  0
  4 16  1  0
  5  6  2  0
  6  7  1  0
  7  8  2  0
  7  9  1  0
  9 10  1  0
 10 11  1  0
 10 15  1  0
 11 12  1  0
 12 13  1  0
 13 14  1  0
 14 15  1  0
 16 17  2  0
 16 22  1  0
 17 18  1  0
 18 19  2  0
 19 20  1  0
 19 21  1  0
 21 22  2  0
 22 23  1  0
 24 25  2  0
 24 30  1  0
 25 26  1  0
 26 27  2  0
 27 28  1  0
 27 29  1  0
 29 30  2  0
M  END
>  <Formula>  (436) 
C22H21Cl3N4O

>  <FW>  (436) 
463.7873

>  <DSSTox_CID>  (436) 
26453

>  <NR-Aromatase>  (436) 
0

>  <NR-AR>  (436) 
0

>  <NR-ER>  (436) 
0

>  <NR-ER-LBD>  (436) 
0

>  <SR-ATAD5>  (436) 
0

>  <SR-MMP>  (436) 
1

$$$$
NCGC00181127-01
     RDKit          2D

 64 71  0  0  1  0  0  0  0  0999 V2000
    3.6182   -1.7507    0.0000 C   0  0  0  0  0  0  0  0  0  0  0  0
    2.8829   -1.3539    0.0000 C   0  0  0  0  0  0  0  0  0  0  0  0
    2.8829   -0.5019    0.0000 C   0  0  0  0  0  0  0  0  0  0  0  0
    4.3185   -1.3539    0.0000 C   0  0  0  0  0  0  0  0  0  0  0  0
    3.5832   -0.1051    0.0000 C   0  0  0  0  0  0  0  0  0  0  0  0
    4.3185   -0.5019    0.0000 C   0  0  0  0  0  0  0  0  0  0  0  0
    4.9488   -1.8558    0.0000 C   0  0  0  0  0  0  0  0  0  0  0  0
    5.7541   -1.6691    0.0000 C   0  0  0  0  0  0  0  0  0  0  0  0
    4.9721    0.0000    0.0000 N   0  0  0  0  0  0  0  0  0  0  0  0
    5.7541   -0.1868    0.0000 C   0  0  0  0  0  0  0  0  0  0  0  0
    6.1160   -0.9220    0.0000 C   0  0  0  0  0  0  0  0  0  0  0  0
    5.2173   -0.8871    0.0000 C   0  0  0  0  0  0  0  0  0  0  0  0
    2.1359   -1.7507    0.0000 N   0  0  0  0  0  0  0  0  0  0  0  0
    1.4356   -0.5019    0.0000 C   0  0  0  0  0  0  0  0  0  0  0  0
    1.4356   -1.3539    0.0000 C   0  0  0  0  0  0  0  0  0  0  0  0
    0.7003   -0.1051    0.0000 C   0  0  0  0  0  0  0  0  0  0  0  0
    0.7003   -1.7507    0.0000 C   0  0  0  0  0  0  0  0  0  0  0  0
    0.0000   -0.5019    0.0000 C   0  0  0  0  0  0  0  0  0  0  0  0
    0.0000   -1.3539    0.0000 C   0  0  0  0  0  0  0  0  0  0  0  0
    6.8396   -0.5369    0.0000 O   0  0  0  0  0  0  0  0  0  0  0  0
    6.8046   -1.3539    0.0000 C   0  0  0  0  0  0  0  0  0  0  0  0
    7.5516   -1.0037    0.0000 C   0  0  0  0  0  0  0  0  0  0  0  0
    7.8200   -3.0930    0.0000 C   0  0  0  0  0  0  0  0  0  0  0  0
    8.5203   -4.3419    0.0000 C   0  0  0  0  0  0  0  0  0  0  0  0
    7.8200   -3.9100    0.0000 C   0  0  0  0  0  0  0  0  0  0  0  0
    9.2206   -3.0930    0.0000 C   0  0  0  0  0  0  0  0  0  0  0  0
    7.0847   -4.2952    0.0000 N   0  0  0  0  0  0  0  0  0  0  0  0
    8.5203   -2.6728    0.0000 C   0  0  0  0  0  0  0  0  0  0  0  0
    6.3844   -3.9100    0.0000 C   0  0  0  0  0  0  0  0  0  0  0  0
    9.2206   -3.9100    0.0000 C   0  0  0  0  0  0  0  0  0  0  0  0
    6.3844   -3.0930    0.0000 C   0  0  0  0  0  0  0  0  0  0  0  0
    4.9488   -3.0930    0.0000 C   0  0  0  0  0  0  0  0  0  0  0  0
    5.6374   -4.2952    0.0000 C   0  0  0  0  0  0  0  0  0  0  0  0
    5.6374   -2.6728    0.0000 C   0  0  0  0  0  0  0  0  0  0  0  0
    8.5203   -1.8558    0.0000 N   0  0  0  0  0  0  0  0  0  0  0  0
    3.4198   -2.4394    0.0000 C   0  0  0  0  0  0  0  0  0  0  0  0
    8.8355   -4.8788    0.0000 C   0  0  0  0  0  0  0  0  0  0  0  0
    4.9488   -3.9100    0.0000 C   0  0  0  0  0  0  0  0  0  0  0  0
    7.0847   -2.6728    0.0000 C   0  0  0  0  0  0  0  0  0  0  0  0
   10.1543   -4.7387    0.0000 O   0  0  0  0  0  0  0  0  0  0  0  0
    9.9560   -2.6728    0.0000 C   0  0  0  0  0  0  0  0  0  0  0  0
   11.1698   -4.7387    0.0000 C   0  0  0  0  0  0  0  0  0  0  0  0
    7.0847   -1.8558    0.0000 C   0  0  0  0  0  0  0  0  0  0  0  0
    8.2869   -5.1238    0.0000 O   0  0  0  0  0  0  0  0  0  0  0  0
    9.9560   -1.8558    0.0000 C   0  0  0  0  0  0  0  0  0  0  0  0
    9.6992   -4.8788    0.0000 O   0  0  0  0  0  0  0  0  0  0  0  0
    2.6378   -2.6728    0.0000 O   0  0  0  0  0  0  0  0  0  0  0  0
   11.6717   -3.8400    0.0000 O   0  0  0  0  0  0  0  0  0  0  0  0
    9.9560   -3.5715    0.0000 C   0  0  0  0  0  0  0  0  0  0  0  0
    7.0380   -5.1589    0.0000 C   0  0  0  0  0  0  0  0  0  0  0  0
    9.2206   -1.4356    0.0000 C   0  0  0  0  0  0  0  0  0  0  0  0
    8.8355   -5.6258    0.0000 O   0  0  0  0  0  0  0  0  0  0  0  0
    3.9684   -2.9529    0.0000 O   0  0  0  0  0  0  0  0  0  0  0  0
    4.2018   -4.2952    0.0000 O   0  0  0  0  0  0  0  0  0  0  0  0
   11.5900   -5.5090    0.0000 C   0  0  0  0  0  0  0  0  0  0  0  0
    3.5365   -3.6766    0.0000 C   0  0  0  0  0  0  0  0  0  0  0  0
    9.5708   -6.0109    0.0000 C   0  0  0  0  0  0  0  0  0  0  0  0
    4.2018   -5.1589    0.0000 C   0  0  0  0  0  0  0  0  0  0  0  0
   10.7029   -3.2097    0.0000 C   0  0  0  0  0  0  0  0  0  0  0  0
    1.5290   -4.0384    0.0000 S   0  0  0  0  0  0  0  0  0  0  0  0
    2.3577   -4.0384    0.0000 O   0  0  0  0  0  0  0  0  0  0  0  0
    0.7120   -4.0384    0.0000 O   0  0  0  0  0  0  0  0  0  0  0  0
    1.5290   -4.8671    0.0000 O   0  0  0  0  0  0  0  0  0  0  0  0
    1.5290   -3.2214    0.0000 O   0  0  0  0  0  0  0  0  0  0  0  0
  1  2  1  0
  1  4  1  0
  1 32  1  0
  1 36  1  1
  2  3  2  0
  2 13  1  0
  3  5  1  0
  3 14  1  0
  7  4  1  1
  5  6  1  0
  9  6  1  1
  7  8  1  0
  7 12  1  0
  8 11  1  0
  9 10  1  0
  9 12  1  0
 10 11  1  0
 11 20  1  1
 11 21  1  0
 13 15  1  0
 14 16  2  0
 14 15  1  0
 15 17  2  0
 16 18  1  0
 17 19  1  0
 18 19  2  0
 21 22  1  0
 23 25  1  0
 23 28  1  0
 23 39  1  1
 23 31  1  0
 24 25  1  0
 24 37  1  0
 24 44  1  1
 24 30  1  0
 25 27  1  6
 26 28  1  0
 26 30  1  0
 26 41  1  0
 26 49  1  6
 27 29  1  0
 27 50  1  0
 28 35  1  1
 29 33  1  0
 29 31  2  0
 30 40  1  1
 31 34  1  0
 32 34  2  0
 32 38  1  0
 33 38  2  0
 35 51  1  0
 35 43  1  0
 36 47  2  0
 36 53  1  0
 37 46  2  0
 37 52  1  0
 38 54  1  0
 39 43  1  0
 40 42  1  0
 41 45  2  0
 42 48  2  0
 42 55  1  0
 45 51  1  0
 49 59  1  0
 52 57  1  0
 53 56  1  0
 54 58  1  0
 60 61  2  0
 60 62  2  0
 60 63  1  0
 60 64  1  0
M  END
>  <Formula>  (437) 
C46H60N4O13S

>  <FW>  (437) 
909.0526 (810.9741+98.0785)

>  <DSSTox_CID>  (437) 
27831

>  <NR-AR>  (437) 
0

>  <NR-AhR>  (437) 
0

>  <SR-ATAD5>  (437) 
1

>  <SR-MMP>  (437) 
1

>  <SR-p53>  (437) 
1

$$$$
NCGC00167969-01
     RDKit          2D

 29 33  0  0  1  0  0  0  0  0999 V2000
    0.7090   -0.4125    0.0000 N   0  0  0  0  0  0  0  0  0  0  0  0
    1.4308    0.0000    0.0000 O   0  0  0  0  0  0  0  0  0  0  0  0
    0.0000    0.0000    0.0000 O   0  0  0  0  0  0  0  0  0  0  0  0
    5.9551   -4.4147    0.0000 C   0  0  0  0  0  0  0  0  0  0  0  0
    6.4449   -3.7574    0.0000 O   0  0  0  0  0  0  0  0  0  0  0  0
    6.1098   -2.9905    0.0000 C   0  0  0  0  0  0  0  0  0  0  0  0
    5.1302   -4.3310    0.0000 C   0  0  0  0  0  0  0  0  0  0  0  0
    4.8014   -3.5769    0.0000 C   0  0  0  0  0  0  0  0  0  0  0  0
    5.2784   -2.9002    0.0000 C   0  0  0  0  0  0  0  0  0  0  0  0
    4.9432   -2.1462    0.0000 C   0  0  0  0  0  0  0  0  0  0  0  0
    3.9765   -3.4802    0.0000 C   0  0  0  0  0  0  0  0  0  0  0  0
    3.6414   -2.7326    0.0000 C   0  0  0  0  0  0  0  0  0  0  0  0
    4.1248   -2.0688    0.0000 N   0  0  0  0  0  0  0  0  0  0  0  0
    3.6414   -1.3986    0.0000 C   0  0  0  0  0  0  0  0  0  0  0  0
    2.8615   -1.6499    0.0000 C   0  0  0  0  0  0  0  0  0  0  0  0
    2.8615   -2.4749    0.0000 C   0  0  0  0  0  0  0  0  0  0  0  0
    2.1397   -2.8937    0.0000 N   0  0  0  0  0  0  0  0  0  0  0  0
    2.1397   -1.2374    0.0000 C   0  0  0  0  0  0  0  0  0  0  0  0
    1.4308   -1.6499    0.0000 C   0  0  0  0  0  0  0  0  0  0  0  0
    1.4308   -2.4749    0.0000 C   0  0  0  0  0  0  0  0  0  0  0  0
    0.7090   -2.8937    0.0000 C   0  0  0  0  0  0  0  0  0  0  0  0
    0.0000   -2.4749    0.0000 C   0  0  0  0  0  0  0  0  0  0  0  0
    0.0000   -1.6499    0.0000 C   0  0  0  0  0  0  0  0  0  0  0  0
    0.7090   -1.2374    0.0000 C   0  0  0  0  0  0  0  0  0  0  0  0
    6.2967   -5.1688    0.0000 O   0  0  0  0  0  0  0  0  0  0  0  0
    4.3890   -4.6596    0.0000 C   0  0  0  0  0  0  0  0  0  0  0  0
    5.0528   -5.1495    0.0000 O   0  0  0  0  0  0  0  0  0  0  0  0
    5.4331   -1.4759    0.0000 O   0  0  0  0  0  0  0  0  0  0  0  0
    3.7123   -4.1827    0.0000 C   0  0  0  0  0  0  0  0  0  0  0  0
  1  3  1  0
  1  2  2  0
  1 24  1  0
  4  7  1  0
  4 25  2  0
  4  5  1  0
  5  6  1  0
  6  9  1  0
  7  8  1  0
  7 26  1  0
  7 27  1  1
  8 11  1  0
  8  9  2  0
  9 10  1  0
 10 13  1  0
 10 28  2  0
 11 12  2  0
 12 13  1  0
 12 16  1  0
 13 14  1  0
 14 15  1  0
 15 18  1  0
 15 16  2  0
 16 17  1  0
 17 20  2  0
 18 19  2  0
 19 20  1  0
 19 24  1  0
 20 21  1  0
 21 22  2  0
 22 23  1  0
 23 24  2  0
 26 29  1  0
M  CHG  2   1   1   3  -1
M  END
>  <Formula>  (438) 
C20H15N3O6

>  <FW>  (438) 
393.3496

>  <DSSTox_CID>  (438) 
26752

>  <NR-AR>  (438) 
0

>  <NR-ER-LBD>  (438) 
0

>  <SR-ATAD5>  (438) 
0

>  <SR-MMP>  (438) 
1

>  <SR-p53>  (438) 
1

$$$$
NCGC00241104-01
     RDKit          2D

 39 43  0  0  0  0  0  0  0  0999 V2000
    8.7292   -1.2152    0.0000 C   0  0  0  0  0  0  0  0  0  0  0  0
    7.7593   -1.5831    0.0000 C   0  0  0  0  0  0  0  0  0  0  0  0
    0.5686   -6.0648    0.0000 C   0  0  0  0  0  0  0  0  0  0  0  0
    2.7091   -2.9097    0.0000 N   0  0  0  0  0  0  0  0  0  0  0  0
    3.4226   -2.4861    0.0000 C   0  0  0  0  0  0  0  0  0  0  0  0
    3.4226   -1.6611    0.0000 O   0  0  0  0  0  0  0  0  0  0  0  0
    4.1361   -2.8986    0.0000 N   0  0  0  0  0  0  0  0  0  0  0  0
    4.8496   -2.4861    0.0000 C   0  0  0  0  0  0  0  0  0  0  0  0
    5.5631   -2.8986    0.0000 C   0  0  0  0  0  0  0  0  0  0  0  0
    6.2655   -2.4861    0.0000 C   0  0  0  0  0  0  0  0  0  0  0  0
    6.2655   -1.6500    0.0000 C   0  0  0  0  0  0  0  0  0  0  0  0
    5.5520   -1.2486    0.0000 C   0  0  0  0  0  0  0  0  0  0  0  0
    4.8496   -1.6611    0.0000 C   0  0  0  0  0  0  0  0  0  0  0  0
    6.9901   -1.2375    0.0000 O   0  0  0  0  0  0  0  0  0  0  0  0
    1.9955   -2.4972    0.0000 C   0  0  0  0  0  0  0  0  0  0  0  0
    1.9064   -1.6723    0.0000 C   0  0  0  0  0  0  0  0  0  0  0  0
    1.0926   -1.5051    0.0000 C   0  0  0  0  0  0  0  0  0  0  0  0
    0.6912   -2.2185    0.0000 N   0  0  0  0  0  0  0  0  0  0  0  0
    1.2486   -2.8429    0.0000 N   0  0  0  0  0  0  0  0  0  0  0  0
    0.7581   -0.7469    0.0000 C   0  0  0  0  0  0  0  0  0  0  0  0
    1.5162   -0.4236    0.0000 C   0  0  0  0  0  0  0  0  0  0  0  0
    0.0000   -1.0926    0.0000 C   0  0  0  0  0  0  0  0  0  0  0  0
    0.4125    0.0000    0.0000 C   0  0  0  0  0  0  0  0  0  0  0  0
    0.2899   -3.8908    0.0000 C   0  0  0  0  0  0  0  0  0  0  0  0
    0.1226   -4.7047    0.0000 C   0  0  0  0  0  0  0  0  0  0  0  0
    1.0702   -3.6344    0.0000 C   0  0  0  0  0  0  0  0  0  0  0  0
    0.7246   -5.2509    0.0000 C   0  0  0  0  0  0  0  0  0  0  0  0
    1.6834   -4.1918    0.0000 C   0  0  0  0  0  0  0  0  0  0  0  0
    1.5274   -4.9945    0.0000 C   0  0  0  0  0  0  0  0  0  0  0  0
    5.5631   -3.7236    0.0000 C   0  0  0  0  0  0  0  0  0  0  0  0
    6.2766   -4.1361    0.0000 C   0  0  0  0  0  0  0  0  0  0  0  0
    6.9901   -2.8875    0.0000 C   0  0  0  0  0  0  0  0  0  0  0  0
    7.0013   -3.7124    0.0000 C   0  0  0  0  0  0  0  0  0  0  0  0
    9.7103   -1.4939    0.0000 N   0  0  0  0  0  0  0  0  0  0  0  0
   10.4350   -1.0814    0.0000 C   0  0  0  0  0  0  0  0  0  0  0  0
   11.1485   -1.4939    0.0000 C   0  0  0  0  0  0  0  0  0  0  0  0
   11.1485   -2.3189    0.0000 O   0  0  0  0  0  0  0  0  0  0  0  0
   10.4350   -2.7314    0.0000 C   0  0  0  0  0  0  0  0  0  0  0  0
    9.7103   -2.3189    0.0000 C   0  0  0  0  0  0  0  0  0  0  0  0
  1  2  1  0
  1 34  1  0
  2 14  1  0
  3 27  1  0
  4  5  1  0
  4 15  1  0
  5  6  2  0
  5  7  1  0
  7  8  1  0
  8  9  1  0
  8 13  2  0
  9 30  1  0
  9 10  2  0
 10 11  1  0
 10 32  1  0
 11 12  2  0
 11 14  1  0
 12 13  1  0
 15 16  2  0
 15 19  1  0
 16 17  1  0
 17 18  2  0
 17 20  1  0
 18 19  1  0
 19 26  1  0
 20 21  1  0
 20 22  1  0
 20 23  1  0
 24 25  2  0
 24 26  1  0
 25 27  1  0
 26 28  2  0
 27 29  2  0
 28 29  1  0
 30 31  2  0
 31 33  1  0
 32 33  2  0
 34 35  1  0
 34 39  1  0
 35 36  1  0
 36 37  1  0
 37 38  1  0
 38 39  1  0
M  END
>  <Formula>  (439) 
C31H37N5O3

>  <FW>  (439) 
527.6572

>  <DSSTox_CID>  (439) 
28883

>  <NR-Aromatase>  (439) 
0

>  <NR-AR>  (439) 
0

>  <NR-AR-LBD>  (439) 
0

>  <NR-ER-LBD>  (439) 
0

>  <NR-AhR>  (439) 
1

>  <SR-ATAD5>  (439) 
0

>  <SR-MMP>  (439) 
1

$$$$
NCGC00255153-01
     RDKit          2D

 35 38  0  0  0  0  0  0  0  0999 V2000
    4.9396   -1.4871    0.0000 C   0  0  0  0  0  0  0  0  0  0  0  0
    5.4091   -0.8088    0.0000 C   0  0  0  0  0  0  0  0  0  0  0  0
    4.1482   -1.2262    0.0000 C   0  0  0  0  0  0  0  0  0  0  0  0
    5.3396   -2.1915    0.0000 C   0  0  0  0  0  0  0  0  0  0  0  0
    6.2353   -0.8088    0.0000 C   0  0  0  0  0  0  0  0  0  0  0  0
    4.9396   -0.1565    0.0000 S   0  0  0  0  0  0  0  0  0  0  0  0
    4.1482   -0.4000    0.0000 C   0  0  0  0  0  0  0  0  0  0  0  0
    3.4351   -1.6349    0.0000 C   0  0  0  0  0  0  0  0  0  0  0  0
    4.9396   -2.9046    0.0000 C   0  0  0  0  0  0  0  0  0  0  0  0
    6.1657   -2.1915    0.0000 O   0  0  0  0  0  0  0  0  0  0  0  0
    6.6353   -1.5305    0.0000 C   0  0  0  0  0  0  0  0  0  0  0  0
    6.6353   -0.1130    0.0000 C   0  0  0  0  0  0  0  0  0  0  0  0
    3.4351    0.0000    0.0000 C   0  0  0  0  0  0  0  0  0  0  0  0
    2.7306   -1.2262    0.0000 C   0  0  0  0  0  0  0  0  0  0  0  0
    4.1134   -2.9046    0.0000 C   0  0  0  0  0  0  0  0  0  0  0  0
    5.3396   -3.6264    0.0000 C   0  0  0  0  0  0  0  0  0  0  0  0
    7.4615   -1.5305    0.0000 C   0  0  0  0  0  0  0  0  0  0  0  0
    7.4615   -0.1130    0.0000 C   0  0  0  0  0  0  0  0  0  0  0  0
    2.7306   -0.4000    0.0000 C   0  0  0  0  0  0  0  0  0  0  0  0
    3.6872   -3.6264    0.0000 C   0  0  0  0  0  0  0  0  0  0  0  0
    4.9396   -4.3308    0.0000 C   0  0  0  0  0  0  0  0  0  0  0  0
    7.8702   -0.8088    0.0000 C   0  0  0  0  0  0  0  0  0  0  0  0
    2.0089    0.0000    0.0000 O   0  0  0  0  0  0  0  0  0  0  0  0
    4.1134   -4.3308    0.0000 C   0  0  0  0  0  0  0  0  0  0  0  0
    8.6963   -0.8088    0.0000 O   0  0  0  0  0  0  0  0  0  0  0  0
    3.6872   -5.0352    0.0000 O   0  0  0  0  0  0  0  0  0  0  0  0
    2.8698   -5.0352    0.0000 C   0  0  0  0  0  0  0  0  0  0  0  0
    2.4610   -4.3308    0.0000 C   0  0  0  0  0  0  0  0  0  0  0  0
    1.6436   -4.3308    0.0000 N   0  0  0  0  0  0  0  0  0  0  0  0
    1.2349   -5.0352    0.0000 C   0  0  0  0  0  0  0  0  0  0  0  0
    1.2349   -3.6264    0.0000 C   0  0  0  0  0  0  0  0  0  0  0  0
    0.4087   -5.0352    0.0000 C   0  0  0  0  0  0  0  0  0  0  0  0
    0.4087   -3.6264    0.0000 C   0  0  0  0  0  0  0  0  0  0  0  0
    0.0000   -4.3308    0.0000 C   0  0  0  0  0  0  0  0  0  0  0  0
    1.2349   -1.6349    0.0000 Cl  0  0  0  0  0  0  0  0  0  0  0  0
  1  2  2  0
  1  3  1  0
  1  4  1  0
  2  5  1  0
  2  6  1  0
  3  7  2  0
  3  8  1  0
  4  9  1  0
  4 10  2  0
  5 11  2  0
  5 12  1  0
  6  7  1  0
  7 13  1  0
  8 14  2  0
  9 15  2  0
  9 16  1  0
 11 17  1  0
 12 18  2  0
 13 19  2  0
 14 19  1  0
 15 20  1  0
 16 21  2  0
 17 22  2  0
 18 22  1  0
 19 23  1  0
 20 24  2  0
 21 24  1  0
 22 25  1  0
 24 26  1  0
 26 27  1  0
 27 28  1  0
 28 29  1  0
 29 30  1  0
 29 31  1  0
 30 32  1  0
 31 33  1  0
 32 34  1  0
 33 34  1  0
M  END
>  <Formula>  (440) 
C28H28ClNO4S

>  <FW>  (440) 
510.0442 (473.5833+36.4609)

>  <DSSTox_CID>  (440) 
14181

>  <NR-Aromatase>  (440) 
1

>  <NR-AR>  (440) 
0

>  <NR-AhR>  (440) 
0

>  <SR-ARE>  (440) 
0

>  <SR-HSE>  (440) 
1

>  <SR-MMP>  (440) 
1

>  <SR-p53>  (440) 
1

$$$$
NCGC00166035-01
     RDKit          2D

 27 29  0  0  1  0  0  0  0  0999 V2000
    3.5786   -5.2720    0.0000 C   0  0  0  0  0  0  0  0  0  0  0  0
    3.5786   -4.4425    0.0000 O   0  0  0  0  0  0  0  0  0  0  0  0
    2.8588   -4.0311    0.0000 C   0  0  0  0  0  0  0  0  0  0  0  0
    2.1459   -4.4425    0.0000 C   0  0  0  0  0  0  0  0  0  0  0  0
    1.4328   -4.0311    0.0000 C   0  0  0  0  0  0  0  0  0  0  0  0
    1.4328   -3.2016    0.0000 C   0  0  0  0  0  0  0  0  0  0  0  0
    2.1459   -2.7903    0.0000 C   0  0  0  0  0  0  0  0  0  0  0  0
    2.8588   -3.2016    0.0000 C   0  0  0  0  0  0  0  0  0  0  0  0
    3.6335   -2.9000    0.0000 C   0  0  0  0  0  0  0  0  0  0  0  0
    4.0997   -3.5855    0.0000 C   0  0  0  0  0  0  0  0  0  0  0  0
    4.9087   -3.6335    0.0000 C   0  0  0  0  0  0  0  0  0  0  0  0
    5.4914   -3.0508    0.0000 C   0  0  0  0  0  0  0  0  0  0  0  0
    6.2729   -3.2839    0.0000 O   0  0  0  0  0  0  0  0  0  0  0  0
    6.8557   -2.7011    0.0000 C   0  0  0  0  0  0  0  0  0  0  0  0
    5.3612   -2.2281    0.0000 C   0  0  0  0  0  0  0  0  0  0  0  0
    6.0398   -1.7619    0.0000 O   0  0  0  0  0  0  0  0  0  0  0  0
    4.6413   -1.8099    0.0000 C   0  0  0  0  0  0  0  0  0  0  0  0
    3.8734   -2.1115    0.0000 C   0  0  0  0  0  0  0  0  0  0  0  0
    3.4072   -1.4328    0.0000 C   0  0  0  0  0  0  0  0  0  0  0  0
    3.8255   -0.7130    0.0000 N   0  0  0  0  0  0  0  0  0  0  0  0
    3.4072    0.0000    0.0000 C   0  0  0  0  0  0  0  0  0  0  0  0
    2.5983   -1.3780    0.0000 C   0  0  0  0  0  0  0  0  0  0  0  0
    2.0156   -1.9676    0.0000 C   0  0  0  0  0  0  0  0  0  0  0  0
    0.7130   -4.4425    0.0000 O   0  0  0  0  0  0  0  0  0  0  0  0
    0.0000   -4.0311    0.0000 C   0  0  0  0  0  0  0  0  0  0  0  0
    2.1459   -5.2720    0.0000 O   0  0  0  0  0  0  0  0  0  0  0  0
    1.4328   -5.6833    0.0000 C   0  0  0  0  0  0  0  0  0  0  0  0
  1  2  1  0
  2  3  1  0
  3  4  2  0
  3  8  1  0
  4  5  1  0
  4 26  1  0
  5  6  2  0
  5 24  1  0
  6  7  1  0
  7  8  2  0
  7 23  1  0
  8  9  1  0
  9 10  2  0
  9 18  1  0
 10 11  1  0
 11 12  2  0
 12 13  1  0
 12 15  1  0
 13 14  1  0
 15 16  2  0
 15 17  1  0
 17 18  2  0
 18 19  1  0
 19 20  1  6
 19 22  1  0
 20 21  1  0
 22 23  1  0
 24 25  1  0
 26 27  1  0
M  END
>  <Formula>  (441) 
C21H25NO5

>  <FW>  (441) 
371.4269

>  <DSSTox_CID>  (441) 
342

>  <NR-Aromatase>  (441) 
0

>  <NR-AR>  (441) 
0

>  <NR-ER>  (441) 
0

>  <SR-ATAD5>  (441) 
1

>  <SR-MMP>  (441) 
1

>  <SR-p53>  (441) 
1

$$$$
NCGC00022001-05
     RDKit          2D

 30 34  0  0  1  0  0  0  0  0999 V2000
    5.7835   -1.9836    0.0000 C   0  0  0  0  0  0  0  0  0  0  0  0
    4.9590   -1.9836    0.0000 O   0  0  0  0  0  0  0  0  0  0  0  0
    4.5437   -2.7027    0.0000 C   0  0  0  0  0  0  0  0  0  0  0  0
    4.9590   -3.4155    0.0000 C   0  0  0  0  0  0  0  0  0  0  0  0
    5.7835   -3.4155    0.0000 O   0  0  0  0  0  0  0  0  0  0  0  0
    6.1988   -4.1346    0.0000 C   0  0  0  0  0  0  0  0  0  0  0  0
    4.5437   -4.1346    0.0000 C   0  0  0  0  0  0  0  0  0  0  0  0
    3.7193   -4.1346    0.0000 C   0  0  0  0  0  0  0  0  0  0  0  0
    3.3040   -3.4155    0.0000 C   0  0  0  0  0  0  0  0  0  0  0  0
    3.7193   -2.7027    0.0000 C   0  0  0  0  0  0  0  0  0  0  0  0
    2.4795   -3.4155    0.0000 C   0  0  0  0  0  0  0  0  0  0  0  0
    2.0642   -4.1346    0.0000 C   0  0  0  0  0  0  0  0  0  0  0  0
    1.2398   -4.1346    0.0000 C   0  0  0  0  0  0  0  0  0  0  0  0
    0.9856   -4.9219    0.0000 C   0  0  0  0  0  0  0  0  0  0  0  0
    1.6551   -5.4053    0.0000 O   0  0  0  0  0  0  0  0  0  0  0  0
    2.3246   -4.9219    0.0000 C   0  0  0  0  0  0  0  0  0  0  0  0
    3.1056   -5.1760    0.0000 O   0  0  0  0  0  0  0  0  0  0  0  0
    0.8244   -3.4155    0.0000 C   0  0  0  0  0  0  0  0  0  0  0  0
    0.0000   -3.4155    0.0000 O   0  0  0  0  0  0  0  0  0  0  0  0
    1.2398   -2.7027    0.0000 C   0  0  0  0  0  0  0  0  0  0  0  0
    0.8244   -1.9836    0.0000 C   0  0  0  0  0  0  0  0  0  0  0  0
    1.2398   -1.2708    0.0000 C   0  0  0  0  0  0  0  0  0  0  0  0
    2.0642   -1.2708    0.0000 C   0  0  0  0  0  0  0  0  0  0  0  0
    2.3246   -0.4835    0.0000 O   0  0  0  0  0  0  0  0  0  0  0  0
    1.6551    0.0000    0.0000 C   0  0  0  0  0  0  0  0  0  0  0  0
    0.9856   -0.4835    0.0000 O   0  0  0  0  0  0  0  0  0  0  0  0
    2.4795   -1.9836    0.0000 C   0  0  0  0  0  0  0  0  0  0  0  0
    2.0642   -2.7027    0.0000 C   0  0  0  0  0  0  0  0  0  0  0  0
    4.9590   -4.8475    0.0000 O   0  0  0  0  0  0  0  0  0  0  0  0
    5.7835   -4.8475    0.0000 C   0  0  0  0  0  0  0  0  0  0  0  0
  1  2  1  0
  2  3  1  0
  3  4  2  0
  3 10  1  0
  4  5  1  0
  4  7  1  0
  5  6  1  0
  7  8  2  0
  7 29  1  0
  8  9  1  0
  9 10  2  0
 11  9  1  1
 11 12  1  0
 11 28  1  0
 12 13  1  0
 12 16  1  1
 13 14  1  6
 13 18  1  0
 14 15  1  0
 15 16  1  0
 16 17  2  0
 18 19  1  1
 18 20  1  0
 20 21  2  0
 20 28  1  0
 21 22  1  0
 22 23  2  0
 22 26  1  0
 23 24  1  0
 23 27  1  0
 24 25  1  0
 25 26  1  0
 27 28  2  0
 29 30  1  0
M  END
>  <Formula>  (442) 
C22H22O8

>  <FW>  (442) 
414.4053

>  <DSSTox_CID>  (442) 
25645

>  <NR-Aromatase>  (442) 
0

>  <NR-AR>  (442) 
0

>  <NR-ER>  (442) 
0

>  <SR-ATAD5>  (442) 
1

>  <SR-MMP>  (442) 
1

>  <SR-p53>  (442) 
0

$$$$
NCGC00159551-01
     RDKit          2D

 31 35  0  0  1  0  0  0  0  0999 V2000
    2.0730   -2.6653    0.0000 C   0  0  0  0  0  0  0  0  0  0  0  0
    1.4327   -2.1450    0.0000 C   0  0  0  0  0  0  0  0  0  0  0  0
    1.8729   -3.4577    0.0000 C   0  0  0  0  0  0  0  0  0  0  0  0
    2.8734   -2.4732    0.0000 N   0  0  0  0  0  0  0  0  0  0  0  0
    1.4327   -1.3207    0.0000 C   0  0  0  0  0  0  0  0  0  0  0  0
    0.7124   -2.5532    0.0000 C   0  0  0  0  0  0  0  0  0  0  0  0
    2.4892   -4.0259    0.0000 C   0  0  0  0  0  0  0  0  0  0  0  0
    1.0885   -3.7058    0.0000 C   0  0  0  0  0  0  0  0  0  0  0  0
    3.2336   -1.7288    0.0000 C   0  0  0  0  0  0  0  0  0  0  0  0
    2.0730   -0.8084    0.0000 N   0  0  0  0  0  0  0  0  0  0  0  0
    0.7124   -0.9044    0.0000 C   0  0  0  0  0  0  0  0  0  0  0  0
    0.0000   -2.1450    0.0000 C   0  0  0  0  0  0  0  0  0  0  0  0
    2.3131   -4.8183    0.0000 C   0  0  0  0  0  0  0  0  0  0  0  0
    0.9204   -4.5141    0.0000 C   0  0  0  0  0  0  0  0  0  0  0  0
    2.8734   -0.9844    0.0000 C   0  0  0  0  0  0  0  0  0  0  0  0
    4.0580   -1.7288    0.0000 N   0  0  0  0  0  0  0  0  0  0  0  0
    1.8729    0.0000    0.0000 C   0  0  0  0  0  0  0  0  0  0  0  0
    0.0000   -1.3207    0.0000 C   0  0  0  0  0  0  0  0  0  0  0  0
    1.5207   -5.0664    0.0000 C   0  0  0  0  0  0  0  0  0  0  0  0
    3.3936   -0.3281    0.0000 O   0  0  0  0  0  0  0  0  0  0  0  0
    4.4821   -2.4412    0.0000 C   0  0  0  0  0  0  0  0  0  0  0  0
    5.3065   -2.4412    0.0000 C   0  0  0  0  0  0  0  0  0  0  0  0
    4.0580   -3.1695    0.0000 O   0  0  0  0  0  0  0  0  0  0  0  0
    5.7787   -1.7768    0.0000 C   0  0  0  0  0  0  0  0  0  0  0  0
    5.7787   -3.1215    0.0000 N   0  0  0  0  0  0  0  0  0  0  0  0
    6.5711   -2.0410    0.0000 C   0  0  0  0  0  0  0  0  0  0  0  0
    6.5711   -2.8654    0.0000 C   0  0  0  0  0  0  0  0  0  0  0  0
    7.2755   -1.6088    0.0000 C   0  0  0  0  0  0  0  0  0  0  0  0
    7.2755   -3.2656    0.0000 C   0  0  0  0  0  0  0  0  0  0  0  0
    8.0038   -2.0410    0.0000 C   0  0  0  0  0  0  0  0  0  0  0  0
    8.0038   -2.8654    0.0000 C   0  0  0  0  0  0  0  0  0  0  0  0
  1  2  1  0
  1  3  1  0
  1  4  2  0
  2  5  2  0
  2  6  1  0
  3  7  2  0
  3  8  1  0
  4  9  1  0
  5 10  1  0
  5 11  1  0
  6 12  2  0
  7 13  1  0
  8 14  2  0
  9 15  1  0
  9 16  1  1
 10 17  1  0
 10 15  1  0
 11 18  2  0
 12 18  1  0
 13 19  2  0
 14 19  1  0
 15 20  2  0
 16 21  1  0
 21 22  1  0
 21 23  2  0
 22 24  2  0
 22 25  1  0
 24 26  1  0
 25 27  1  0
 26 28  2  0
 26 27  1  0
 27 29  2  0
 28 30  1  0
 29 31  1  0
 30 31  2  0
M  END
>  <Formula>  (443) 
C25H20N4O2

>  <FW>  (443) 
408.4519

>  <DSSTox_CID>  (443) 
26092

>  <NR-Aromatase>  (443) 
1

>  <NR-AR>  (443) 
0

>  <NR-AR-LBD>  (443) 
0

>  <NR-ER-LBD>  (443) 
0

>  <NR-AhR>  (443) 
1

>  <SR-ATAD5>  (443) 
1

>  <SR-MMP>  (443) 
1

$$$$
NCGC00255042-01
     RDKit          2D

 28 31  0  0  0  0  0  0  0  0999 V2000
    1.3394   -2.0777    0.0000 N   0  0  0  0  0  0  0  0  0  0  0  0
    1.3394   -1.2634    0.0000 C   0  0  0  0  0  0  0  0  0  0  0  0
    2.1386   -2.3365    0.0000 C   0  0  0  0  0  0  0  0  0  0  0  0
    2.1386   -1.0046    0.0000 O   0  0  0  0  0  0  0  0  0  0  0  0
    2.6104   -1.6591    0.0000 C   0  0  0  0  0  0  0  0  0  0  0  0
    0.6773   -0.7763    0.0000 O   0  0  0  0  0  0  0  0  0  0  0  0
    2.3821   -3.1128    0.0000 O   0  0  0  0  0  0  0  0  0  0  0  0
    3.3259   -2.0777    0.0000 C   0  0  0  0  0  0  0  0  0  0  0  0
    3.3259   -1.2558    0.0000 C   0  0  0  0  0  0  0  0  0  0  0  0
    3.3259   -0.4186    0.0000 C   0  0  0  0  0  0  0  0  0  0  0  0
    4.0336   -1.6515    0.0000 C   0  0  0  0  0  0  0  0  0  0  0  0
    4.0260   -0.0152    0.0000 C   0  0  0  0  0  0  0  0  0  0  0  0
    4.7490   -1.2482    0.0000 C   0  0  0  0  0  0  0  0  0  0  0  0
    4.7490   -0.4186    0.0000 C   0  0  0  0  0  0  0  0  0  0  0  0
    5.4568   -0.0152    0.0000 O   0  0  0  0  0  0  0  0  0  0  0  0
    6.1798   -0.4186    0.0000 C   0  0  0  0  0  0  0  0  0  0  0  0
    6.8876    0.0000    0.0000 C   0  0  0  0  0  0  0  0  0  0  0  0
    6.1798   -1.2482    0.0000 C   0  0  0  0  0  0  0  0  0  0  0  0
    7.6030   -0.4110    0.0000 C   0  0  0  0  0  0  0  0  0  0  0  0
    6.8952   -1.6515    0.0000 C   0  0  0  0  0  0  0  0  0  0  0  0
    7.6106   -1.2329    0.0000 C   0  0  0  0  0  0  0  0  0  0  0  0
    0.7154   -2.5648    0.0000 N   0  0  0  0  0  0  0  0  0  0  0  0
    0.7154   -3.3791    0.0000 C   0  0  0  0  0  0  0  0  0  0  0  0
    1.4308   -3.7977    0.0000 C   0  0  0  0  0  0  0  0  0  0  0  0
    0.0000   -3.7977    0.0000 C   0  0  0  0  0  0  0  0  0  0  0  0
    1.4308   -4.6197    0.0000 C   0  0  0  0  0  0  0  0  0  0  0  0
    0.0000   -4.6197    0.0000 C   0  0  0  0  0  0  0  0  0  0  0  0
    0.7154   -5.0306    0.0000 C   0  0  0  0  0  0  0  0  0  0  0  0
  1  2  1  0
  1  3  1  0
  1 22  1  0
  2  4  1  0
  2  6  2  0
  3  5  1  0
  3  7  2  0
  4  5  1  0
  5  8  1  0
  5  9  1  0
  9 10  2  0
  9 11  1  0
 10 12  1  0
 11 13  2  0
 12 14  2  0
 13 14  1  0
 14 15  1  0
 15 16  1  0
 16 17  2  0
 16 18  1  0
 17 19  1  0
 18 20  2  0
 19 21  2  0
 20 21  1  0
 22 23  1  0
 23 24  2  0
 23 25  1  0
 24 26  1  0
 25 27  2  0
 26 28  2  0
 27 28  1  0
M  END
>  <Formula>  (444) 
C22H18N2O4

>  <FW>  (444) 
374.3893

>  <DSSTox_CID>  (444) 
14588

>  <NR-AR>  (444) 
0

>  <NR-AR-LBD>  (444) 
0

>  <NR-AhR>  (444) 
0

>  <SR-ARE>  (444) 
1

>  <SR-ATAD5>  (444) 
0

>  <SR-MMP>  (444) 
1

$$$$
NCGC00181300-01
     RDKit          2D

 47 49  0  0  1  0  0  0  0  0999 V2000
    3.5802   -6.6291    0.0000 C   0  0  0  0  0  0  0  0  0  0  0  0
    3.5802   -7.4741    0.0000 C   0  0  0  0  0  0  0  0  0  0  0  0
    2.8746   -6.2197    0.0000 N   0  0  0  0  0  0  0  0  0  0  0  0
    4.3120   -6.2197    0.0000 N   0  0  0  0  0  0  0  0  0  0  0  0
    2.8746   -7.8661    0.0000 N   0  0  0  0  0  0  0  0  0  0  0  0
    5.0176   -7.4741    0.0000 N   0  0  0  0  0  0  0  0  0  0  0  0
    4.3120   -7.8661    0.0000 C   0  0  0  0  0  0  0  0  0  0  0  0
    5.0176   -6.6291    0.0000 C   0  0  0  0  0  0  0  0  0  0  0  0
    2.1516   -6.6291    0.0000 C   0  0  0  0  0  0  0  0  0  0  0  0
    2.1516   -7.4741    0.0000 C   0  0  0  0  0  0  0  0  0  0  0  0
    1.4373   -6.2197    0.0000 C   0  0  0  0  0  0  0  0  0  0  0  0
    1.4373   -7.8661    0.0000 C   0  0  0  0  0  0  0  0  0  0  0  0
    0.7317   -6.6291    0.0000 C   0  0  0  0  0  0  0  0  0  0  0  0
    0.7317   -7.4741    0.0000 C   0  0  0  0  0  0  0  0  0  0  0  0
    4.3120   -8.7111    0.0000 O   0  0  0  0  0  0  0  0  0  0  0  0
    5.7493   -6.2197    0.0000 O   0  0  0  0  0  0  0  0  0  0  0  0
    0.0000   -6.2197    0.0000 C   0  0  0  0  0  0  0  0  0  0  0  0
    0.0000   -7.8835    0.0000 C   0  0  0  0  0  0  0  0  0  0  0  0
    4.2771   -2.9008    0.0000 C   0  0  0  0  0  0  0  0  0  0  0  0
    4.2946   -3.7284    0.0000 C   0  0  0  0  0  0  0  0  0  0  0  0
    3.5715   -4.1551    0.0000 C   0  0  0  0  0  0  0  0  0  0  0  0
    3.5802   -4.9653    0.0000 C   0  0  0  0  0  0  0  0  0  0  0  0
    2.8746   -5.3921    0.0000 C   0  0  0  0  0  0  0  0  0  0  0  0
    4.9653   -2.4826    0.0000 O   0  0  0  0  0  0  0  0  0  0  0  0
    5.0089   -4.1377    0.0000 O   0  0  0  0  0  0  0  0  0  0  0  0
    2.8660   -3.7457    0.0000 O   0  0  0  0  0  0  0  0  0  0  0  0
    4.3033   -5.3747    0.0000 O   0  0  0  0  0  0  0  0  0  0  0  0
    0.6708   -5.0960    0.0000 C   0  0  0  0  0  0  0  0  0  0  0  0
    1.4373   -5.4009    0.0000 C   0  0  0  0  0  0  0  0  0  0  0  0
    2.1516   -4.9827    0.0000 C   0  0  0  0  0  0  0  0  0  0  0  0
    2.1429   -4.1639    0.0000 C   0  0  0  0  0  0  0  0  0  0  0  0
    1.4286   -3.7545    0.0000 O   0  0  0  0  0  0  0  0  0  0  0  0
    7.1605   -5.3573    0.0000 C   0  0  0  0  0  0  0  0  0  0  0  0
    6.4462   -4.9479    0.0000 C   0  0  0  0  0  0  0  0  0  0  0  0
    5.7231   -5.3660    0.0000 C   0  0  0  0  0  0  0  0  0  0  0  0
    5.0089   -4.9566    0.0000 C   0  0  0  0  0  0  0  0  0  0  0  0
    5.0001   -4.5559    0.0000 O   0  0  0  0  0  0  0  0  0  0  0  0
    7.8661   -4.1203    0.0000 C   0  0  0  0  0  0  0  0  0  0  0  0
    7.1518   -3.7109    0.0000 C   0  0  0  0  0  0  0  0  0  0  0  0
    6.4375   -4.1290    0.0000 C   0  0  0  0  0  0  0  0  0  0  0  0
    5.7145   -3.7196    0.0000 C   0  0  0  0  0  0  0  0  0  0  0  0
    5.7145   -2.8921    0.0000 O   0  0  0  0  0  0  0  0  0  0  0  0
    6.4026    0.0000    0.0000 C   0  0  0  0  0  0  0  0  0  0  0  0
    5.6970   -0.4181    0.0000 C   0  0  0  0  0  0  0  0  0  0  0  0
    5.7057   -1.2457    0.0000 C   0  0  0  0  0  0  0  0  0  0  0  0
    4.9915   -1.6551    0.0000 C   0  0  0  0  0  0  0  0  0  0  0  0
    4.2684   -1.2457    0.0000 O   0  0  0  0  0  0  0  0  0  0  0  0
  1  2  1  0
  1  3  1  0
  1  4  2  0
  2  5  2  0
  2  7  1  0
  3  9  1  0
  3 23  1  0
  4  8  1  0
  5 10  1  0
  6  8  1  0
  6  7  1  0
  7 15  2  0
  8 16  2  0
  9 10  2  0
  9 11  1  0
 10 12  1  0
 11 13  2  0
 12 14  2  0
 13 14  1  0
 13 17  1  0
 14 18  1  0
 20 19  1  1
 19 24  1  0
 20 21  1  0
 20 25  1  0
 21 22  1  0
 21 26  1  6
 22 23  1  1
 22 27  1  0
 24 46  1  0
 25 41  1  0
 26 31  1  0
 27 36  1  0
 28 29  1  0
 29 30  1  0
 30 31  1  0
 31 32  2  0
 33 34  1  0
 34 35  1  0
 35 36  1  0
 36 37  2  0
 38 39  1  0
 39 40  1  0
 40 41  1  0
 41 42  2  0
 43 44  1  0
 44 45  1  0
 45 46  1  0
 46 47  2  0
M  END
>  <Formula>  (445) 
C33H44N4O10

>  <FW>  (445) 
656.7233

>  <DSSTox_CID>  (445) 
26892

>  <NR-Aromatase>  (445) 
0

>  <NR-AR>  (445) 
1

>  <NR-ER-LBD>  (445) 
0

>  <NR-PPAR-gamma>  (445) 
0

>  <NR-AhR>  (445) 
0

>  <SR-HSE>  (445) 
0

>  <SR-MMP>  (445) 
1

$$$$
NCGC00255354-01
     RDKit          2D

 23 24  0  0  0  0  0  0  0  0999 V2000
    2.2346   -2.4702    0.0000 N   0  0  0  0  0  0  0  0  0  0  0  0
    1.5703   -2.9594    0.0000 C   0  0  0  0  0  0  0  0  0  0  0  0
    2.8990   -2.9594    0.0000 C   0  0  0  0  0  0  0  0  0  0  0  0
    1.8300   -3.7445    0.0000 C   0  0  0  0  0  0  0  0  0  0  0  0
    2.6514   -3.7445    0.0000 C   0  0  0  0  0  0  0  0  0  0  0  0
    3.1285   -4.4088    0.0000 C   0  0  0  0  0  0  0  0  0  0  0  0
    3.6177   -5.0732    0.0000 N   0  0  0  0  0  0  0  0  0  0  0  0
    1.3408   -4.4088    0.0000 Br  0  0  0  0  0  0  0  0  0  0  0  0
    3.6841   -2.6997    0.0000 C   0  0  0  0  0  0  0  0  0  0  0  0
    4.3001   -3.2553    0.0000 C   0  0  0  0  0  0  0  0  0  0  0  0
    3.8653   -1.8964    0.0000 C   0  0  0  0  0  0  0  0  0  0  0  0
    5.0853   -2.9956    0.0000 C   0  0  0  0  0  0  0  0  0  0  0  0
    4.6383   -1.6367    0.0000 C   0  0  0  0  0  0  0  0  0  0  0  0
    5.2544   -2.1924    0.0000 C   0  0  0  0  0  0  0  0  0  0  0  0
    6.0395   -1.9327    0.0000 Cl  0  0  0  0  0  0  0  0  0  0  0  0
    2.2346   -1.6488    0.0000 C   0  0  0  0  0  0  0  0  0  0  0  0
    1.5220   -1.2260    0.0000 O   0  0  0  0  0  0  0  0  0  0  0  0
    1.5220   -0.4047    0.0000 C   0  0  0  0  0  0  0  0  0  0  0  0
    0.8033    0.0000    0.0000 C   0  0  0  0  0  0  0  0  0  0  0  0
    0.7851   -2.6997    0.0000 C   0  0  0  0  0  0  0  0  0  0  0  0
    1.0448   -1.9145    0.0000 F   0  0  0  0  0  0  0  0  0  0  0  0
    0.5254   -3.4848    0.0000 F   0  0  0  0  0  0  0  0  0  0  0  0
    0.0000   -2.4400    0.0000 F   0  0  0  0  0  0  0  0  0  0  0  0
  1  2  1  0
  1  3  1  0
  1 16  1  0
  2  4  2  0
  2 20  1  0
  3  5  2  0
  3  9  1  0
  4  5  1  0
  4  8  1  0
  5  6  1  0
  6  7  3  0
  9 10  2  0
  9 11  1  0
 10 12  1  0
 11 13  2  0
 12 14  2  0
 13 14  1  0
 14 15  1  0
 16 17  1  0
 17 18  1  0
 18 19  1  0
 20 21  1  0
 20 22  1  0
 20 23  1  0
M  END
>  <Formula>  (446) 
C15H11BrClF3N2O

>  <FW>  (446) 
407.6128

>  <DSSTox_CID>  (446) 
12533

>  <NR-AR>  (446) 
0

>  <NR-AhR>  (446) 
0

>  <SR-ATAD5>  (446) 
0

>  <SR-HSE>  (446) 
1

>  <SR-MMP>  (446) 
1

>  <SR-p53>  (446) 
1

$$$$
NCGC00183133-01
     RDKit          2D

 65 71  0  0  1  0  0  0  0  0999 V2000
    2.8449   -2.4791    0.0000 C   0  0  0  0  0  0  0  0  0  0  0  0
    2.8449   -3.2919    0.0000 C   0  0  0  0  0  0  0  0  0  0  0  0
    2.1404   -2.0592    0.0000 C   0  0  0  0  0  0  0  0  0  0  0  0
    2.1404   -3.6983    0.0000 O   0  0  0  0  0  0  0  0  0  0  0  0
    1.4360   -2.4791    0.0000 C   0  0  0  0  0  0  0  0  0  0  0  0
    1.4360   -3.2919    0.0000 C   0  0  0  0  0  0  0  0  0  0  0  0
    2.1404   -1.2328    0.0000 O   0  0  0  0  0  0  0  0  0  0  0  0
    0.7180   -2.0592    0.0000 N   0  0  0  0  0  0  0  0  0  0  0  0
    0.7180   -3.6983    0.0000 C   0  0  0  0  0  0  0  0  0  0  0  0
    3.5764   -3.6983    0.0000 O   0  0  0  0  0  0  0  0  0  0  0  0
    4.2809   -3.2919    0.0000 C   0  0  0  0  0  0  0  0  0  0  0  0
    4.2809   -2.4791    0.0000 C   0  0  0  0  0  0  0  0  0  0  0  0
    5.0124   -3.6983    0.0000 C   0  0  0  0  0  0  0  0  0  0  0  0
    5.0124   -2.0592    0.0000 O   0  0  0  0  0  0  0  0  0  0  0  0
    5.7033   -3.2919    0.0000 C   0  0  0  0  0  0  0  0  0  0  0  0
    5.7033   -2.4791    0.0000 C   0  0  0  0  0  0  0  0  0  0  0  0
    0.7180   -1.2328    0.0000 C   0  0  0  0  0  0  0  0  0  0  0  0
    1.4360   -0.8264    0.0000 O   0  0  0  0  0  0  0  0  0  0  0  0
    0.0000   -0.8264    0.0000 C   0  0  0  0  0  0  0  0  0  0  0  0
    6.4213   -2.0592    0.0000 O   0  0  0  0  0  0  0  0  0  0  0  0
    2.8449   -0.8264    0.0000 C   0  0  0  0  0  0  0  0  0  0  0  0
    8.5617   -2.4791    0.0000 C   0  0  0  0  0  0  0  0  0  0  0  0
    7.8438   -2.0592    0.0000 C   0  0  0  0  0  0  0  0  0  0  0  0
    7.8438   -3.6983    0.0000 C   0  0  0  0  0  0  0  0  0  0  0  0
    7.1257   -2.4791    0.0000 C   0  0  0  0  0  0  0  0  0  0  0  0
    7.1257   -3.2919    0.0000 C   0  0  0  0  0  0  0  0  0  0  0  0
    9.2662   -2.0592    0.0000 C   0  0  0  0  0  0  0  0  0  0  0  0
    9.9842   -2.4791    0.0000 C   0  0  0  0  0  0  0  0  0  0  0  0
    9.9842   -3.2919    0.0000 C   0  0  0  0  0  0  0  0  0  0  0  0
   10.7022   -2.0592    0.0000 O   0  0  0  0  0  0  0  0  0  0  0  0
   11.4066   -2.4791    0.0000 C   0  0  0  0  0  0  0  0  0  0  0  0
   10.7022   -3.6983    0.0000 C   0  0  0  0  0  0  0  0  0  0  0  0
   11.4066   -3.2919    0.0000 C   0  0  0  0  0  0  0  0  0  0  0  0
   12.8291   -1.6528    0.0000 C   0  0  0  0  0  0  0  0  0  0  0  0
   12.8291   -2.4791    0.0000 C   0  0  0  0  0  0  0  0  0  0  0  0
   12.1246   -1.2328    0.0000 C   0  0  0  0  0  0  0  0  0  0  0  0
   12.1246   -2.8855    0.0000 C   0  0  0  0  0  0  0  0  0  0  0  0
   11.4066   -1.6528    0.0000 O   0  0  0  0  0  0  0  0  0  0  0  0
    7.8438   -4.5247    0.0000 C   0  0  0  0  0  0  0  0  0  0  0  0
    8.5617   -4.9311    0.0000 C   0  0  0  0  0  0  0  0  0  0  0  0
   10.7022   -4.5247    0.0000 O   0  0  0  0  0  0  0  0  0  0  0  0
    9.9842   -4.9311    0.0000 C   0  0  0  0  0  0  0  0  0  0  0  0
    8.5617   -5.7575    0.0000 C   0  0  0  0  0  0  0  0  0  0  0  0
    9.9842   -5.7575    0.0000 C   0  0  0  0  0  0  0  0  0  0  0  0
    9.2662   -6.1639    0.0000 C   0  0  0  0  0  0  0  0  0  0  0  0
    7.8438   -6.1639    0.0000 C   0  0  0  0  0  0  0  0  0  0  0  0
    7.8438   -7.0039    0.0000 O   0  0  0  0  0  0  0  0  0  0  0  0
    9.2662   -7.0039    0.0000 C   0  0  0  0  0  0  0  0  0  0  0  0
   10.7022   -6.1639    0.0000 C   0  0  0  0  0  0  0  0  0  0  0  0
   10.7022   -7.0039    0.0000 C   0  0  0  0  0  0  0  0  0  0  0  0
    9.9842   -7.3967    0.0000 C   0  0  0  0  0  0  0  0  0  0  0  0
    7.8438   -1.2328    0.0000 C   0  0  0  0  0  0  0  0  0  0  0  0
    6.4213   -3.6983    0.0000 C   0  0  0  0  0  0  0  0  0  0  0  0
    9.2662   -5.3375    0.0000 O   0  0  0  0  0  0  0  0  0  0  0  0
    9.9842   -8.2230    0.0000 O   0  0  0  0  0  0  0  0  0  0  0  0
   11.4066   -7.3967    0.0000 C   0  0  0  0  0  0  0  0  0  0  0  0
    9.2662   -4.5247    0.0000 O   0  0  0  0  0  0  0  0  0  0  0  0
   12.1246   -0.4064    0.0000 C   0  0  0  0  0  0  0  0  0  0  0  0
   12.8291    0.0000    0.0000 C   0  0  0  0  0  0  0  0  0  0  0  0
   11.4066    0.0000    0.0000 C   0  0  0  0  0  0  0  0  0  0  0  0
   13.5471   -1.2463    0.0000 C   0  0  0  0  0  0  0  0  0  0  0  0
    3.5629   -2.0592    0.0000 C   0  0  0  0  0  0  0  0  0  0  0  0
    4.9989   -4.5247    0.0000 O   0  0  0  0  0  0  0  0  0  0  0  0
    4.2673   -4.9311    0.0000 C   0  0  0  0  0  0  0  0  0  0  0  0
   13.5471   -0.4064    0.0000 C   0  0  0  0  0  0  0  0  0  0  0  0
  1  2  1  0
  1  3  1  0
  2  4  1  0
  2 10  1  6
  3  5  1  0
  3  7  1  1
  4  6  1  0
  5  6  1  0
  5  8  1  1
  6  9  1  1
  7 21  1  0
  8 17  1  0
 11 10  1  1
 11 12  1  0
 11 13  1  0
 12 14  1  0
 12 62  1  6
 13 15  1  0
 13 63  1  6
 14 16  1  0
 15 16  1  0
 16 20  1  1
 17 18  2  0
 17 19  1  0
 25 20  1  6
 22 23  2  0
 22 27  1  0
 23 25  1  0
 23 52  1  0
 24 26  1  0
 24 39  2  0
 25 26  1  0
 26 53  1  6
 28 27  1  1
 28 30  1  0
 28 29  1  0
 29 32  1  0
 31 30  1  0
 31 33  1  6
 31 37  1  0
 31 38  1  0
 32 33  1  1
 32 41  1  0
 34 35  1  0
 34 36  1  0
 34 61  1  1
 35 37  2  0
 36 38  1  0
 36 58  1  6
 39 40  1  0
 40 43  2  0
 41 42  1  0
 42 44  1  0
 42 57  2  0
 43 46  1  0
 43 45  1  0
 44 49  1  6
 44 45  1  0
 45 48  1  0
 45 54  1  6
 46 47  1  0
 48 47  1  1
 48 51  1  0
 49 50  2  0
 50 51  1  0
 50 56  1  0
 51 55  1  1
 58 59  1  0
 58 60  1  0
 59 65  1  0
 63 64  1  0
M  END
>  <Formula>  (447) 
C50H75NO14

>  <FW>  (447) 
914.1288

>  <DSSTox_CID>  (447) 
28903

>  <NR-AR>  (447) 
0

>  <NR-AR-LBD>  (447) 
0

>  <NR-ER-LBD>  (447) 
0

>  <NR-AhR>  (447) 
0

>  <SR-ATAD5>  (447) 
0

>  <SR-MMP>  (447) 
1

$$$$
NCGC00159344-02
     RDKit          2D

 37 41  0  0  1  0  0  0  0  0999 V2000
    2.8520   -1.2375    0.0000 C   0  0  0  0  0  0  0  0  0  0  0  0
    2.8520   -2.0697    0.0000 C   0  0  0  0  0  0  0  0  0  0  0  0
    2.1336   -2.4750    0.0000 C   0  0  0  0  0  0  0  0  0  0  0  0
    2.1336   -0.8250    0.0000 C   0  0  0  0  0  0  0  0  0  0  0  0
    4.2602   -2.0697    0.0000 C   0  0  0  0  0  0  0  0  0  0  0  0
    4.2602   -1.2375    0.0000 C   0  0  0  0  0  0  0  0  0  0  0  0
    1.4224   -2.0697    0.0000 C   0  0  0  0  0  0  0  0  0  0  0  0
    3.5561   -0.8250    0.0000 C   0  0  0  0  0  0  0  0  0  0  0  0
    3.5561   -2.4750    0.0000 C   0  0  0  0  0  0  0  0  0  0  0  0
    1.4224   -1.2375    0.0000 C   0  0  0  0  0  0  0  0  0  0  0  0
    5.6897   -1.2375    0.0000 C   0  0  0  0  0  0  0  0  0  0  0  0
    4.9643   -2.4750    0.0000 C   0  0  0  0  0  0  0  0  0  0  0  0
    4.9643   -0.8250    0.0000 C   0  0  0  0  0  0  0  0  0  0  0  0
    5.6897   -2.0697    0.0000 C   0  0  0  0  0  0  0  0  0  0  0  0
    4.9643   -3.7766    0.0000 O   0  0  0  0  0  0  0  0  0  0  0  0
    6.4081   -0.8250    0.0000 C   0  0  0  0  0  0  0  0  0  0  0  0
    2.1336    0.0000    0.0000 O   0  0  0  0  0  0  0  0  0  0  0  0
    2.1336   -3.2929    0.0000 O   0  0  0  0  0  0  0  0  0  0  0  0
    0.7183   -2.4750    0.0000 C   0  0  0  0  0  0  0  0  0  0  0  0
    7.1121   -1.2375    0.0000 O   0  0  0  0  0  0  0  0  0  0  0  0
    3.5561    0.0000    0.0000 O   0  0  0  0  0  0  0  0  0  0  0  0
    3.5561   -3.2929    0.0000 O   0  0  0  0  0  0  0  0  0  0  0  0
    6.5077   -1.7780    0.0000 O   0  0  0  0  0  0  0  0  0  0  0  0
    0.7183   -0.8250    0.0000 C   0  0  0  0  0  0  0  0  0  0  0  0
    0.7183   -3.2929    0.0000 O   0  0  0  0  0  0  0  0  0  0  0  0
    0.0000   -1.2375    0.0000 C   0  0  0  0  0  0  0  0  0  0  0  0
    0.0000   -2.0697    0.0000 C   0  0  0  0  0  0  0  0  0  0  0  0
    6.4081    0.0000    0.0000 C   0  0  0  0  0  0  0  0  0  0  0  0
    4.2602   -4.6016    0.0000 C   0  0  0  0  0  0  0  0  0  0  0  0
    4.2602   -5.4266    0.0000 C   0  0  0  0  0  0  0  0  0  0  0  0
    3.5490   -4.1820    0.0000 O   0  0  0  0  0  0  0  0  0  0  0  0
    3.5490   -5.8533    0.0000 C   0  0  0  0  0  0  0  0  0  0  0  0
    2.8235   -4.6016    0.0000 C   0  0  0  0  0  0  0  0  0  0  0  0
    2.8235   -5.4266    0.0000 C   0  0  0  0  0  0  0  0  0  0  0  0
    3.5490   -6.6783    0.0000 N   0  0  0  0  0  0  0  0  0  0  0  0
    2.1052   -5.8533    0.0000 O   0  0  0  0  0  0  0  0  0  0  0  0
    2.1052   -4.1820    0.0000 C   0  0  0  0  0  0  0  0  0  0  0  0
  1  2  2  0
  1  4  1  0
  1  8  1  0
  2  3  1  0
  2  9  1  0
  3 18  2  0
  3  7  1  0
  4 10  1  0
  4 17  2  0
  5  6  1  0
  5 12  1  0
  5  9  2  0
  6  8  2  0
  6 13  1  0
  7 10  2  0
  7 19  1  0
  8 21  1  0
  9 22  1  0
 10 24  1  0
 11 13  1  0
 11 14  1  0
 11 16  1  0
 11 23  1  6
 12 15  1  6
 12 14  1  0
 29 15  1  1
 16 20  2  0
 16 28  1  0
 19 25  1  0
 19 27  2  0
 24 26  2  0
 26 27  1  0
 29 30  1  0
 29 31  1  0
 30 32  1  0
 31 33  1  0
 32 34  1  0
 32 35  1  6
 33 34  1  0
 33 37  1  6
 34 36  1  6
M  END
>  <Formula>  (448) 
C26H27NO10

>  <FW>  (448) 
513.4933

>  <DSSTox_CID>  (448) 
2742

>  <NR-Aromatase>  (448) 
1

>  <NR-AR>  (448) 
0

>  <NR-AR-LBD>  (448) 
1

>  <NR-ER-LBD>  (448) 
1

>  <SR-ATAD5>  (448) 
1

>  <SR-MMP>  (448) 
1

>  <SR-p53>  (448) 
1

$$$$
NCGC00160675-01
     RDKit          2D

 37 41  0  0  1  0  0  0  0  0999 V2000
    2.8520   -1.2375    0.0000 C   0  0  0  0  0  0  0  0  0  0  0  0
    2.8520   -2.0697    0.0000 C   0  0  0  0  0  0  0  0  0  0  0  0
    2.1336   -2.4750    0.0000 C   0  0  0  0  0  0  0  0  0  0  0  0
    2.1336   -0.8250    0.0000 C   0  0  0  0  0  0  0  0  0  0  0  0
    4.2602   -2.0697    0.0000 C   0  0  0  0  0  0  0  0  0  0  0  0
    4.2602   -1.2375    0.0000 C   0  0  0  0  0  0  0  0  0  0  0  0
    1.4224   -2.0697    0.0000 C   0  0  0  0  0  0  0  0  0  0  0  0
    3.5561   -0.8250    0.0000 C   0  0  0  0  0  0  0  0  0  0  0  0
    3.5561   -2.4750    0.0000 C   0  0  0  0  0  0  0  0  0  0  0  0
    1.4224   -1.2375    0.0000 C   0  0  0  0  0  0  0  0  0  0  0  0
    5.6897   -1.2375    0.0000 C   0  0  0  0  0  0  0  0  0  0  0  0
    4.9643   -2.4750    0.0000 C   0  0  0  0  0  0  0  0  0  0  0  0
    4.9643   -0.8250    0.0000 C   0  0  0  0  0  0  0  0  0  0  0  0
    5.6897   -2.0697    0.0000 C   0  0  0  0  0  0  0  0  0  0  0  0
    4.9643   -3.7766    0.0000 O   0  0  0  0  0  0  0  0  0  0  0  0
    6.4081   -0.8250    0.0000 C   0  0  0  0  0  0  0  0  0  0  0  0
    2.1336    0.0000    0.0000 O   0  0  0  0  0  0  0  0  0  0  0  0
    2.1336   -3.2929    0.0000 O   0  0  0  0  0  0  0  0  0  0  0  0
    0.7183   -2.4750    0.0000 C   0  0  0  0  0  0  0  0  0  0  0  0
    7.1121   -1.2375    0.0000 O   0  0  0  0  0  0  0  0  0  0  0  0
    3.5561    0.0000    0.0000 O   0  0  0  0  0  0  0  0  0  0  0  0
    3.5561   -3.2929    0.0000 O   0  0  0  0  0  0  0  0  0  0  0  0
    6.5077   -1.7780    0.0000 O   0  0  0  0  0  0  0  0  0  0  0  0
    0.7183   -0.8250    0.0000 C   0  0  0  0  0  0  0  0  0  0  0  0
    0.7183   -3.2929    0.0000 O   0  0  0  0  0  0  0  0  0  0  0  0
    0.0000   -1.2375    0.0000 C   0  0  0  0  0  0  0  0  0  0  0  0
    0.0000   -2.0697    0.0000 C   0  0  0  0  0  0  0  0  0  0  0  0
    6.4081    0.0000    0.0000 C   0  0  0  0  0  0  0  0  0  0  0  0
    4.2602   -4.6016    0.0000 C   0  0  0  0  0  0  0  0  0  0  0  0
    4.2602   -5.4266    0.0000 C   0  0  0  0  0  0  0  0  0  0  0  0
    3.5490   -4.1820    0.0000 O   0  0  0  0  0  0  0  0  0  0  0  0
    3.5490   -5.8533    0.0000 C   0  0  0  0  0  0  0  0  0  0  0  0
    2.8235   -4.6016    0.0000 C   0  0  0  0  0  0  0  0  0  0  0  0
    2.8235   -5.4266    0.0000 C   0  0  0  0  0  0  0  0  0  0  0  0
    3.5490   -6.6783    0.0000 N   0  0  0  0  0  0  0  0  0  0  0  0
    2.1052   -5.8533    0.0000 O   0  0  0  0  0  0  0  0  0  0  0  0
    2.1052   -4.1820    0.0000 C   0  0  0  0  0  0  0  0  0  0  0  0
  1  2  2  0
  1  4  1  0
  1  8  1  0
  2  3  1  0
  2  9  1  0
  3 18  2  0
  3  7  1  0
  4 10  1  0
  4 17  2  0
  5  6  1  0
  5 12  1  0
  5  9  2  0
  6  8  2  0
  6 13  1  0
  7 10  2  0
  7 19  1  0
  8 21  1  0
  9 22  1  0
 10 24  1  0
 11 13  1  0
 11 14  1  0
 11 16  1  0
 11 23  1  6
 12 15  1  6
 12 14  1  0
 29 15  1  1
 16 20  2  0
 16 28  1  0
 19 25  1  0
 19 27  2  0
 24 26  2  0
 26 27  1  0
 29 30  1  0
 29 31  1  0
 30 32  1  0
 31 33  1  0
 32 34  1  0
 32 35  1  6
 33 34  1  0
 33 37  1  6
 34 36  1  6
M  END
>  <Formula>  (449) 
C26H27NO10

>  <FW>  (449) 
513.4933

>  <DSSTox_CID>  (449) 
2742

>  <NR-Aromatase>  (449) 
1

>  <NR-AR>  (449) 
0

>  <NR-AR-LBD>  (449) 
1

>  <NR-ER-LBD>  (449) 
1

>  <SR-ATAD5>  (449) 
1

>  <SR-MMP>  (449) 
1

>  <SR-p53>  (449) 
1

$$$$
NCGC00167431-01
     RDKit          2D

 63 68  0  0  1  0  0  0  0  0999 V2000
    3.5700   -4.9022    0.0000 C   0  0  0  0  0  0  0  0  0  0  0  0
    2.8560   -4.4972    0.0000 C   0  0  0  0  0  0  0  0  0  0  0  0
    2.1527   -5.7121    0.0000 C   0  0  0  0  0  0  0  0  0  0  0  0
    4.2627   -3.6873    0.0000 C   0  0  0  0  0  0  0  0  0  0  0  0
    4.2627   -4.4972    0.0000 C   0  0  0  0  0  0  0  0  0  0  0  0
    2.1527   -4.9022    0.0000 O   0  0  0  0  0  0  0  0  0  0  0  0
    3.5700   -3.2717    0.0000 C   0  0  0  0  0  0  0  0  0  0  0  0
    3.5700   -5.7121    0.0000 C   0  0  0  0  0  0  0  0  0  0  0  0
    2.8560   -3.6873    0.0000 C   0  0  0  0  0  0  0  0  0  0  0  0
    2.1527   -2.4510    0.0000 C   0  0  0  0  0  0  0  0  0  0  0  0
    6.3941   -3.2717    0.0000 N   0  0  0  0  0  0  0  0  0  0  0  0
    5.7014   -3.6873    0.0000 C   0  0  0  0  0  0  0  0  0  0  0  0
    2.8560   -2.0355    0.0000 C   0  0  0  0  0  0  0  0  0  0  0  0
    4.9767   -4.9022    0.0000 C   0  0  0  0  0  0  0  0  0  0  0  0
    6.3941   -2.4510    0.0000 C   0  0  0  0  0  0  0  0  0  0  0  0
    3.5700   -0.8313    0.0000 C   0  0  0  0  0  0  0  0  0  0  0  0
    2.8560   -1.2256    0.0000 C   0  0  0  0  0  0  0  0  0  0  0  0
    4.9767   -3.2717    0.0000 C   0  0  0  0  0  0  0  0  0  0  0  0
    2.1527   -3.2717    0.0000 C   0  0  0  0  0  0  0  0  0  0  0  0
    5.7014   -4.4972    0.0000 C   0  0  0  0  0  0  0  0  0  0  0  0
    4.2627   -1.2256    0.0000 C   0  0  0  0  0  0  0  0  0  0  0  0
    7.1081   -2.0355    0.0000 C   0  0  0  0  0  0  0  0  0  0  0  0
    0.7247   -5.7121    0.0000 O   0  0  0  0  0  0  0  0  0  0  0  0
    1.4493   -2.0567    0.0000 O   0  0  0  0  0  0  0  0  0  0  0  0
    0.7247   -4.9022    0.0000 C   0  0  0  0  0  0  0  0  0  0  0  0
    0.6075   -2.0567    0.0000 C   0  0  0  0  0  0  0  0  0  0  0  0
    1.4493   -4.4972    0.0000 C   0  0  0  0  0  0  0  0  0  0  0  0
    1.4493   -3.6873    0.0000 C   0  0  0  0  0  0  0  0  0  0  0  0
    6.3941   -0.8313    0.0000 C   0  0  0  0  0  0  0  0  0  0  0  0
    3.9004   -6.4154    0.0000 O   0  0  0  0  0  0  0  0  0  0  0  0
    7.1081   -1.2256    0.0000 C   0  0  0  0  0  0  0  0  0  0  0  0
    5.7014   -2.0355    0.0000 O   0  0  0  0  0  0  0  0  0  0  0  0
    4.9767   -0.8313    0.0000 C   0  0  0  0  0  0  0  0  0  0  0  0
    5.7014   -1.2256    0.0000 C   0  0  0  0  0  0  0  0  0  0  0  0
    0.1492   -1.3534    0.0000 O   0  0  0  0  0  0  0  0  0  0  0  0
    3.5700   -2.4510    0.0000 O   0  0  0  0  0  0  0  0  0  0  0  0
    2.1314   -0.8313    0.0000 O   0  0  0  0  0  0  0  0  0  0  0  0
    4.9767   -2.4510    0.0000 O   0  0  0  0  0  0  0  0  0  0  0  0
    4.2627   -2.0355    0.0000 O   0  0  0  0  0  0  0  0  0  0  0  0
    2.1527   -6.5220    0.0000 C   0  0  0  0  0  0  0  0  0  0  0  0
    2.8560   -2.8667    0.0000 C   0  0  0  0  0  0  0  0  0  0  0  0
    3.5700    0.0000    0.0000 C   0  0  0  0  0  0  0  0  0  0  0  0
    0.7247   -3.2717    0.0000 O   0  0  0  0  0  0  0  0  0  0  0  0
    7.8328   -2.4510    0.0000 C   0  0  0  0  0  0  0  0  0  0  0  0
    0.1918   -2.7708    0.0000 C   0  0  0  0  0  0  0  0  0  0  0  0
    4.9767    0.0000    0.0000 C   0  0  0  0  0  0  0  0  0  0  0  0
    0.0000   -3.6873    0.0000 C   0  0  0  0  0  0  0  0  0  0  0  0
    3.5807   -1.6092    0.0000 C   0  0  0  0  0  0  0  0  0  0  0  0
    2.1527   -4.1136    0.0000 C   0  0  0  0  0  0  0  0  0  0  0  0
    4.9767   -5.7440    0.0000 O   0  0  0  0  0  0  0  0  0  0  0  0
    6.4154   -4.9235    0.0000 C   0  0  0  0  0  0  0  0  0  0  0  0
    6.4154   -5.7654    0.0000 N   0  0  0  0  0  0  0  0  0  0  0  0
    7.1401   -6.1916    0.0000 N   0  0  0  0  0  0  0  0  0  0  0  0
    7.8754   -5.7760    0.0000 C   0  0  0  0  0  0  0  0  0  0  0  0
    7.1401   -7.0335    0.0000 C   0  0  0  0  0  0  0  0  0  0  0  0
    8.6001   -6.2023    0.0000 C   0  0  0  0  0  0  0  0  0  0  0  0
    7.8648   -7.4598    0.0000 C   0  0  0  0  0  0  0  0  0  0  0  0
    8.6001   -7.0442    0.0000 N   0  0  0  0  0  0  0  0  0  0  0  0
    9.3248   -7.4704    0.0000 C   0  0  0  0  0  0  0  0  0  0  0  0
   10.1027   -7.1401    0.0000 C   0  0  0  0  0  0  0  0  0  0  0  0
    9.4100   -8.3123    0.0000 C   0  0  0  0  0  0  0  0  0  0  0  0
   10.6568   -7.7688    0.0000 C   0  0  0  0  0  0  0  0  0  0  0  0
   10.2306   -8.4935    0.0000 C   0  0  0  0  0  0  0  0  0  0  0  0
  1  2  2  0
  1  5  1  0
  1  8  1  0
  2  6  1  0
  2  9  1  0
  3  8  1  0
  3 23  1  0
  3 40  1  6
  3  6  1  0
  4  5  2  0
  4  7  1  0
  4 18  1  0
  5 14  1  0
  7 36  1  0
  7  9  2  0
  8 30  2  0
  9 41  1  0
 10 19  1  0
 10 13  1  0
 10 24  1  1
 11 12  1  0
 11 15  1  0
 12 20  1  0
 12 18  2  0
 13 17  1  0
 13 48  1  1
 14 20  2  0
 14 50  1  0
 15 22  1  0
 15 32  2  0
 16 17  1  0
 16 21  1  0
 16 42  1  6
 17 37  1  6
 18 38  1  0
 19 28  1  0
 19 49  1  6
 20 51  1  0
 21 39  1  6
 21 33  1  0
 22 31  2  0
 22 44  1  0
 23 25  1  0
 24 26  1  0
 25 27  2  0
 26 35  2  0
 26 45  1  0
 27 28  1  0
 28 43  1  6
 29 31  1  0
 29 34  2  0
 33 34  1  0
 33 46  1  1
 43 47  1  0
 51 52  2  0
 52 53  1  0
 53 54  1  0
 53 55  1  0
 54 56  1  0
 55 57  1  0
 56 58  1  0
 57 58  1  0
 58 59  1  0
 59 60  1  0
 59 61  1  0
 60 62  1  0
 61 63  1  0
 62 63  1  0
M  END
>  <Formula>  (450) 
C47H64N4O12

>  <FW>  (450) 
877.0307

>  <DSSTox_CID>  (450) 
21115

>  <NR-AR>  (450) 
0

>  <NR-AR-LBD>  (450) 
0

>  <NR-ER-LBD>  (450) 
0

>  <NR-AhR>  (450) 
0

>  <SR-ATAD5>  (450) 
0

>  <SR-MMP>  (450) 
1

$$$$
NCGC00093976-03
     RDKit          2D

 37 40  0  0  1  0  0  0  0  0999 V2000
    7.8574   -1.4301    0.0000 C   0  0  0  0  0  0  0  0  0  0  0  0
    7.8574   -2.2551    0.0000 C   0  0  0  0  0  0  0  0  0  0  0  0
    7.1503   -1.0136    0.0000 C   0  0  0  0  0  0  0  0  0  0  0  0
    7.1503   -2.6637    0.0000 C   0  0  0  0  0  0  0  0  0  0  0  0
    6.4274   -1.4301    0.0000 C   0  0  0  0  0  0  0  0  0  0  0  0
    6.4274   -2.2551    0.0000 C   0  0  0  0  0  0  0  0  0  0  0  0
    5.7202   -1.0136    0.0000 C   0  0  0  0  0  0  0  0  0  0  0  0
    5.0052   -1.4301    0.0000 C   0  0  0  0  0  0  0  0  0  0  0  0
    5.7202   -2.6637    0.0000 C   0  0  0  0  0  0  0  0  0  0  0  0
    5.0052   -2.2551    0.0000 C   0  0  0  0  0  0  0  0  0  0  0  0
    4.2902   -1.0136    0.0000 C   0  0  0  0  0  0  0  0  0  0  0  0
    3.5673   -1.4301    0.0000 C   0  0  0  0  0  0  0  0  0  0  0  0
    4.2902   -2.6637    0.0000 C   0  0  0  0  0  0  0  0  0  0  0  0
    3.5673   -2.2551    0.0000 C   0  0  0  0  0  0  0  0  0  0  0  0
    5.7202   -0.1886    0.0000 O   0  0  0  0  0  0  0  0  0  0  0  0
    5.7202   -3.4887    0.0000 O   0  0  0  0  0  0  0  0  0  0  0  0
    4.2902   -0.1886    0.0000 O   0  0  0  0  0  0  0  0  0  0  0  0
    4.2902   -3.4887    0.0000 O   0  0  0  0  0  0  0  0  0  0  0  0
    2.8522   -1.0136    0.0000 C   0  0  0  0  0  0  0  0  0  0  0  0
    2.1372   -1.4301    0.0000 C   0  0  0  0  0  0  0  0  0  0  0  0
    2.8522   -2.6637    0.0000 C   0  0  0  0  0  0  0  0  0  0  0  0
    2.1372   -2.2551    0.0000 C   0  0  0  0  0  0  0  0  0  0  0  0
    2.8522   -3.4887    0.0000 O   0  0  0  0  0  0  0  0  0  0  0  0
    1.7286   -0.6993    0.0000 C   0  0  0  0  0  0  0  0  0  0  0  0
    0.9036   -0.6993    0.0000 O   0  0  0  0  0  0  0  0  0  0  0  0
    2.1372    0.0000    0.0000 C   0  0  0  0  0  0  0  0  0  0  0  0
    1.3122   -1.4301    0.0000 O   0  0  0  0  0  0  0  0  0  0  0  0
    2.1372   -3.9051    0.0000 C   0  0  0  0  0  0  0  0  0  0  0  0
    2.1372   -4.7302    0.0000 C   0  0  0  0  0  0  0  0  0  0  0  0
    1.4301   -3.4887    0.0000 O   0  0  0  0  0  0  0  0  0  0  0  0
    1.4301   -5.1387    0.0000 C   0  0  0  0  0  0  0  0  0  0  0  0
    0.7072   -3.9051    0.0000 C   0  0  0  0  0  0  0  0  0  0  0  0
    0.7072   -4.7302    0.0000 C   0  0  0  0  0  0  0  0  0  0  0  0
    0.0000   -3.4887    0.0000 C   0  0  0  0  0  0  0  0  0  0  0  0
    0.0000   -5.1387    0.0000 O   0  0  0  0  0  0  0  0  0  0  0  0
    1.4301   -5.9638    0.0000 N   0  0  0  0  0  0  0  0  0  0  0  0
    3.6615   -4.4395    0.0000 Cl  0  0  0  0  0  0  0  0  0  0  0  0
  1  2  2  0
  1  3  1  0
  2  4  1  0
  3  5  2  0
  4  6  2  0
  5  7  1  0
  5  6  1  0
  6  9  1  0
  7  8  1  0
  7 15  2  0
  8 11  2  0
  8 10  1  0
  9 10  1  0
  9 16  2  0
 10 13  2  0
 11 12  1  0
 11 17  1  0
 12 19  1  0
 12 14  2  0
 13 14  1  0
 13 18  1  0
 14 21  1  0
 19 20  1  0
 20 22  1  0
 20 24  1  0
 20 27  1  1
 21 22  1  0
 21 23  1  1
 28 23  1  1
 24 25  2  0
 24 26  1  0
 28 29  1  0
 28 30  1  0
 29 31  1  0
 30 32  1  0
 31 33  1  0
 31 36  1  6
 32 33  1  0
 32 34  1  6
 33 35  1  6
M  END
>  <Formula>  (451) 
C26H28ClNO9

>  <FW>  (451) 
533.9548 (497.4939+36.4609)

>  <DSSTox_CID>  (451) 
27775

>  <NR-Aromatase>  (451) 
1

>  <NR-AR>  (451) 
0

>  <NR-AR-LBD>  (451) 
1

>  <NR-ER-LBD>  (451) 
1

>  <SR-ATAD5>  (451) 
1

>  <SR-MMP>  (451) 
1

>  <SR-p53>  (451) 
1

$$$$
NCGC00161927-01
     RDKit          2D

 29 33  0  0  1  0  0  0  0  0999 V2000
    2.6999   -1.2403    0.0000 C   0  0  0  0  0  0  0  0  0  0  0  0
    2.6999   -2.0653    0.0000 C   0  0  0  0  0  0  0  0  0  0  0  0
    1.9845   -0.8250    0.0000 C   0  0  0  0  0  0  0  0  0  0  0  0
    1.9845   -2.4749    0.0000 C   0  0  0  0  0  0  0  0  0  0  0  0
    1.2692   -1.2403    0.0000 C   0  0  0  0  0  0  0  0  0  0  0  0
    1.2692   -2.0653    0.0000 C   0  0  0  0  0  0  0  0  0  0  0  0
    3.4153   -0.8250    0.0000 C   0  0  0  0  0  0  0  0  0  0  0  0
    4.1306   -1.2403    0.0000 C   0  0  0  0  0  0  0  0  0  0  0  0
    3.4153   -2.4749    0.0000 C   0  0  0  0  0  0  0  0  0  0  0  0
    4.1306   -2.0653    0.0000 C   0  0  0  0  0  0  0  0  0  0  0  0
    4.9152   -0.9807    0.0000 C   0  0  0  0  0  0  0  0  0  0  0  0
    5.3941   -1.6499    0.0000 O   0  0  0  0  0  0  0  0  0  0  0  0
    4.9152   -2.3134    0.0000 C   0  0  0  0  0  0  0  0  0  0  0  0
    0.4846   -0.9807    0.0000 O   0  0  0  0  0  0  0  0  0  0  0  0
    0.0000   -1.6499    0.0000 C   0  0  0  0  0  0  0  0  0  0  0  0
    0.4846   -2.3134    0.0000 O   0  0  0  0  0  0  0  0  0  0  0  0
    3.4153   -3.2941    0.0000 C   0  0  0  0  0  0  0  0  0  0  0  0
    4.1306   -3.7153    0.0000 C   0  0  0  0  0  0  0  0  0  0  0  0
    2.6999   -3.7153    0.0000 C   0  0  0  0  0  0  0  0  0  0  0  0
    4.1306   -4.5403    0.0000 C   0  0  0  0  0  0  0  0  0  0  0  0
    2.6999   -4.5287    0.0000 C   0  0  0  0  0  0  0  0  0  0  0  0
    3.4153   -4.9441    0.0000 C   0  0  0  0  0  0  0  0  0  0  0  0
    3.4153    0.0000    0.0000 O   0  0  0  0  0  0  0  0  0  0  0  0
    5.1633   -3.0979    0.0000 O   0  0  0  0  0  0  0  0  0  0  0  0
    1.9845   -4.9441    0.0000 O   0  0  0  0  0  0  0  0  0  0  0  0
    1.2692   -4.5287    0.0000 C   0  0  0  0  0  0  0  0  0  0  0  0
    3.4153   -5.7691    0.0000 O   0  0  0  0  0  0  0  0  0  0  0  0
    4.8460   -4.9441    0.0000 O   0  0  0  0  0  0  0  0  0  0  0  0
    5.5498   -4.5403    0.0000 C   0  0  0  0  0  0  0  0  0  0  0  0
  1  3  2  0
  1  7  1  0
  1  2  1  0
  2  4  2  0
  2  9  1  0
  3  5  1  0
  4  6  1  0
  5  6  2  0
  5 14  1  0
  6 16  1  0
  7  8  1  0
  7 23  1  1
  8 11  1  1
  8 10  1  0
  9 10  1  0
  9 17  1  6
 10 13  1  6
 11 12  1  0
 12 13  1  0
 13 24  2  0
 14 15  1  0
 15 16  1  0
 17 18  2  0
 17 19  1  0
 18 20  1  0
 19 21  2  0
 20 22  2  0
 20 28  1  0
 21 22  1  0
 21 25  1  0
 22 27  1  0
 25 26  1  0
 28 29  1  0
M  END
>  <Formula>  (452) 
C21H20O8

>  <FW>  (452) 
400.3787

>  <DSSTox_CID>  (452) 
28668

>  <NR-Aromatase>  (452) 
0

>  <NR-AR>  (452) 
0

>  <NR-ER>  (452) 
0

>  <NR-AhR>  (452) 
1

>  <SR-ATAD5>  (452) 
1

>  <SR-MMP>  (452) 
1

>  <SR-p53>  (452) 
1

$$$$
NCGC00186465-01
     RDKit          2D

 31 36  0  0  0  0  0  0  0  0999 V2000
    2.2844   -4.0819    0.0000 N   0  0  0  0  0  0  0  0  0  0  0  0
    3.1083   -4.0819    0.0000 C   0  0  0  0  0  0  0  0  0  0  0  0
    3.5277   -4.7561    0.0000 C   0  0  0  0  0  0  0  0  0  0  0  0
    3.1083   -5.5050    0.0000 C   0  0  0  0  0  0  0  0  0  0  0  0
    2.2844   -5.5050    0.0000 C   0  0  0  0  0  0  0  0  0  0  0  0
    1.8350   -6.2615    0.0000 C   0  0  0  0  0  0  0  0  0  0  0  0
    1.0561   -6.2615    0.0000 N   0  0  0  0  0  0  0  0  0  0  0  0
    0.6067   -5.5050    0.0000 C   0  0  0  0  0  0  0  0  0  0  0  0
    1.0561   -4.7561    0.0000 C   0  0  0  0  0  0  0  0  0  0  0  0
    1.8350   -4.7561    0.0000 C   0  0  0  0  0  0  0  0  0  0  0  0
    1.4605   -7.4898    0.0000 N   0  0  0  0  0  0  0  0  0  0  0  0
    2.0971   -7.0030    0.0000 N   0  0  0  0  0  0  0  0  0  0  0  0
    0.7864   -7.0030    0.0000 C   0  0  0  0  0  0  0  0  0  0  0  0
    0.0000   -7.2352    0.0000 O   0  0  0  0  0  0  0  0  0  0  0  0
    4.7261   -2.6214    0.0000 C   0  0  0  0  0  0  0  0  0  0  0  0
    4.2692   -1.9099    0.0000 C   0  0  0  0  0  0  0  0  0  0  0  0
    3.4453   -1.9099    0.0000 C   0  0  0  0  0  0  0  0  0  0  0  0
    3.0783   -2.6214    0.0000 C   0  0  0  0  0  0  0  0  0  0  0  0
    3.4902   -3.3405    0.0000 C   0  0  0  0  0  0  0  0  0  0  0  0
    4.3142   -3.3405    0.0000 C   0  0  0  0  0  0  0  0  0  0  0  0
    4.6886   -1.1609    0.0000 C   0  0  0  0  0  0  0  0  0  0  0  0
    4.0520   -0.6367    0.0000 C   0  0  0  0  0  0  0  0  0  0  0  0
    4.5688    0.0000    0.0000 C   0  0  0  0  0  0  0  0  0  0  0  0
    5.2129   -0.5243    0.0000 C   0  0  0  0  0  0  0  0  0  0  0  0
    5.4750   -1.4231    0.0000 N   0  0  0  0  0  0  0  0  0  0  0  0
    5.5799   -5.4301    0.0000 C   0  0  0  0  0  0  0  0  0  0  0  0
    5.9993   -4.7186    0.0000 C   0  0  0  0  0  0  0  0  0  0  0  0
    5.5799   -3.9996    0.0000 C   0  0  0  0  0  0  0  0  0  0  0  0
    4.7561   -3.9996    0.0000 C   0  0  0  0  0  0  0  0  0  0  0  0
    4.3516   -4.7186    0.0000 C   0  0  0  0  0  0  0  0  0  0  0  0
    4.8009   -5.4301    0.0000 C   0  0  0  0  0  0  0  0  0  0  0  0
  1  2  2  0
  1 10  1  0
  2  3  1  0
  2 19  1  0
  3  4  2  0
  3 30  1  0
  4  5  1  0
  5  6  1  0
  5 10  2  0
  6  7  1  0
  6 12  2  0
  7  8  1  0
  7 13  1  0
  8  9  2  0
  9 10  1  0
 11 12  1  0
 11 13  1  0
 13 14  2  0
 15 20  2  0
 15 16  1  0
 16 17  2  0
 16 21  1  0
 17 18  1  0
 18 19  2  0
 19 20  1  0
 21 22  1  0
 21 24  1  0
 21 25  1  0
 22 23  1  0
 23 24  1  0
 26 31  2  0
 26 27  1  0
 27 28  2  0
 28 29  1  0
 29 30  2  0
 30 31  1  0
M  END
>  <Formula>  (453) 
C25H21N5O

>  <FW>  (453) 
407.4671

>  <DSSTox_CID>  (453) 
28874

>  <NR-Aromatase>  (453) 
0

>  <NR-AR>  (453) 
0

>  <NR-ER>  (453) 
0

>  <NR-PPAR-gamma>  (453) 
0

>  <NR-AhR>  (453) 
0

>  <SR-ATAD5>  (453) 
0

>  <SR-MMP>  (453) 
1

$$$$
NCGC00160275-02
     RDKit          2D

 28 32  0  0  0  0  0  0  0  0999 V2000
    1.4281    0.0000    0.0000 C   0  0  0  0  0  0  0  0  0  0  0  0
    1.4281   -0.8263    0.0000 C   0  0  0  0  0  0  0  0  0  0  0  0
    2.1423   -1.2394    0.0000 C   0  0  0  0  0  0  0  0  0  0  0  0
    2.8563   -0.8263    0.0000 C   0  0  0  0  0  0  0  0  0  0  0  0
    3.5755   -1.2394    0.0000 C   0  0  0  0  0  0  0  0  0  0  0  0
    3.5755   -2.0658    0.0000 C   0  0  0  0  0  0  0  0  0  0  0  0
    2.8563   -2.4789    0.0000 C   0  0  0  0  0  0  0  0  0  0  0  0
    2.1423   -2.0658    0.0000 C   0  0  0  0  0  0  0  0  0  0  0  0
    1.4281   -2.4789    0.0000 C   0  0  0  0  0  0  0  0  0  0  0  0
    0.7141   -2.0658    0.0000 C   0  0  0  0  0  0  0  0  0  0  0  0
    0.7141   -1.2394    0.0000 C   0  0  0  0  0  0  0  0  0  0  0  0
    0.0000   -2.4789    0.0000 O   0  0  0  0  0  0  0  0  0  0  0  0
    1.4281   -3.3001    0.0000 C   0  0  0  0  0  0  0  0  0  0  0  0
    0.7141   -3.7132    0.0000 O   0  0  0  0  0  0  0  0  0  0  0  0
    2.1423   -3.7132    0.0000 C   0  0  0  0  0  0  0  0  0  0  0  0
    2.8563   -3.3001    0.0000 C   0  0  0  0  0  0  0  0  0  0  0  0
    3.5755   -3.7132    0.0000 C   0  0  0  0  0  0  0  0  0  0  0  0
    3.5755   -4.5396    0.0000 C   0  0  0  0  0  0  0  0  0  0  0  0
    4.2896   -4.9527    0.0000 O   0  0  0  0  0  0  0  0  0  0  0  0
    2.8563   -4.9527    0.0000 C   0  0  0  0  0  0  0  0  0  0  0  0
    2.1423   -4.5396    0.0000 C   0  0  0  0  0  0  0  0  0  0  0  0
    1.4281   -4.9527    0.0000 O   0  0  0  0  0  0  0  0  0  0  0  0
    4.2896   -3.3001    0.0000 C   0  0  0  0  0  0  0  0  0  0  0  0
    5.0037   -3.7132    0.0000 O   0  0  0  0  0  0  0  0  0  0  0  0
    4.2896   -2.4789    0.0000 C   0  0  0  0  0  0  0  0  0  0  0  0
    4.5702   -1.7036    0.0000 C   0  0  0  0  0  0  0  0  0  0  0  0
    5.1006   -2.6217    0.0000 C   0  0  0  0  0  0  0  0  0  0  0  0
    2.8563    0.0000    0.0000 O   0  0  0  0  0  0  0  0  0  0  0  0
  1  2  1  0
  2  3  2  0
  2 11  1  0
  3  4  1  0
  3  8  1  0
  4  5  2  0
  4 28  1  0
  5  6  1  0
  6  7  2  0
  6 25  1  0
  7  8  1  0
  7 16  1  0
  8  9  2  0
  9 10  1  0
  9 13  1  0
 10 11  2  0
 10 12  1  0
 13 14  2  0
 13 15  1  0
 15 16  2  0
 15 21  1  0
 16 17  1  0
 17 18  2  0
 17 23  1  0
 18 19  1  0
 18 20  1  0
 20 21  2  0
 21 22  1  0
 23 24  2  0
 23 25  1  0
 25 26  1  0
 25 27  1  0
M  END
>  <Formula>  (454) 
C22H16O6

>  <FW>  (454) 
376.3588

>  <DSSTox_CID>  (454) 
26101

>  <NR-Aromatase>  (454) 
0

>  <NR-AR>  (454) 
0

>  <NR-ER-LBD>  (454) 
0

>  <NR-PPAR-gamma>  (454) 
0

>  <NR-AhR>  (454) 
0

>  <SR-ATAD5>  (454) 
0

>  <SR-MMP>  (454) 
1

>  <SR-p53>  (454) 
1

$$$$
NCGC00254744-01
     RDKit          2D

 62 68  0  0  1  0  0  0  0  0999 V2000
    8.8767   -8.0435    0.0000 C   0  0  0  0  0  0  0  0  0  0  0  0
    8.8767   -8.8932    0.0000 C   0  0  0  0  0  0  0  0  0  0  0  0
    9.5944   -7.6310    0.0000 C   0  0  0  0  0  0  0  0  0  0  0  0
    8.1425   -7.6393    0.0000 C   0  0  0  0  0  0  0  0  0  0  0  0
    8.8685   -7.2103    0.0000 O   0  0  0  0  0  0  0  0  0  0  0  0
    7.4330   -8.8932    0.0000 O   0  0  0  0  0  0  0  0  0  0  0  0
    9.5779   -9.2892    0.0000 C   0  0  0  0  0  0  0  0  0  0  0  0
    9.5944   -6.8225    0.0000 C   0  0  0  0  0  0  0  0  0  0  0  0
   10.3039   -8.0435    0.0000 C   0  0  0  0  0  0  0  0  0  0  0  0
    7.4330   -8.0435    0.0000 C   0  0  0  0  0  0  0  0  0  0  0  0
    8.1425   -6.8225    0.0000 C   0  0  0  0  0  0  0  0  0  0  0  0
   10.3039   -8.8932    0.0000 C   0  0  0  0  0  0  0  0  0  0  0  0
    9.5779  -10.1224    0.0000 O   0  0  0  0  0  0  0  0  0  0  0  0
   10.3122   -6.4018    0.0000 O   0  0  0  0  0  0  0  0  0  0  0  0
    8.8932   -6.3853    0.0000 O   0  0  0  0  0  0  0  0  0  0  0  0
    7.4578   -6.4018    0.0000 C   0  0  0  0  0  0  0  0  0  0  0  0
   11.0299   -9.2892    0.0000 C   0  0  0  0  0  0  0  0  0  0  0  0
   10.3287   -5.5768    0.0000 C   0  0  0  0  0  0  0  0  0  0  0  0
    7.4578   -5.5768    0.0000 C   0  0  0  0  0  0  0  0  0  0  0  0
   11.0794   -5.1726    0.0000 C   0  0  0  0  0  0  0  0  0  0  0  0
    9.6357   -5.1314    0.0000 C   0  0  0  0  0  0  0  0  0  0  0  0
    6.7483   -5.1561    0.0000 C   0  0  0  0  0  0  0  0  0  0  0  0
   11.0794   -4.3641    0.0000 C   0  0  0  0  0  0  0  0  0  0  0  0
    9.6357   -4.3228    0.0000 C   0  0  0  0  0  0  0  0  0  0  0  0
    6.7483   -4.3393    0.0000 C   0  0  0  0  0  0  0  0  0  0  0  0
    6.0388   -5.5768    0.0000 C   0  0  0  0  0  0  0  0  0  0  0  0
   10.3699   -3.9434    0.0000 O   0  0  0  0  0  0  0  0  0  0  0  0
   11.7806   -4.7683    0.0000 O   0  0  0  0  0  0  0  0  0  0  0  0
   11.0794   -3.5309    0.0000 C   0  0  0  0  0  0  0  0  0  0  0  0
    8.9345   -3.8939    0.0000 C   0  0  0  0  0  0  0  0  0  0  0  0
    6.0470   -3.8362    0.0000 O   0  0  0  0  0  0  0  0  0  0  0  0
    7.4743   -3.9434    0.0000 C   0  0  0  0  0  0  0  0  0  0  0  0
   12.5066   -4.3641    0.0000 C   0  0  0  0  0  0  0  0  0  0  0  0
   11.7806   -3.1101    0.0000 C   0  0  0  0  0  0  0  0  0  0  0  0
    8.1672   -4.3641    0.0000 C   0  0  0  0  0  0  0  0  0  0  0  0
    5.1808   -3.8362    0.0000 C   0  0  0  0  0  0  0  0  0  0  0  0
    7.4743   -3.1101    0.0000 C   0  0  0  0  0  0  0  0  0  0  0  0
   12.5066   -3.5309    0.0000 C   0  0  0  0  0  0  0  0  0  0  0  0
   13.2326   -4.7683    0.0000 C   0  0  0  0  0  0  0  0  0  0  0  0
    5.1808   -2.9287    0.0000 C   0  0  0  0  0  0  0  0  0  0  0  0
    4.4714   -4.1743    0.0000 O   0  0  0  0  0  0  0  0  0  0  0  0
   13.2326   -3.1101    0.0000 C   0  0  0  0  0  0  0  0  0  0  0  0
   13.2326   -5.5933    0.0000 C   0  0  0  0  0  0  0  0  0  0  0  0
   13.9421   -4.3641    0.0000 C   0  0  0  0  0  0  0  0  0  0  0  0
    4.4714   -2.5079    0.0000 C   0  0  0  0  0  0  0  0  0  0  0  0
    3.7619   -3.7537    0.0000 C   0  0  0  0  0  0  0  0  0  0  0  0
   12.5066   -6.0141    0.0000 C   0  0  0  0  0  0  0  0  0  0  0  0
    3.7619   -2.9287    0.0000 C   0  0  0  0  0  0  0  0  0  0  0  0
    4.4714   -1.6747    0.0000 O   0  0  0  0  0  0  0  0  0  0  0  0
    3.0359   -4.1743    0.0000 C   0  0  0  0  0  0  0  0  0  0  0  0
    3.0359   -2.5079    0.0000 O   0  0  0  0  0  0  0  0  0  0  0  0
    5.1808   -1.2540    0.0000 C   0  0  0  0  0  0  0  0  0  0  0  0
    2.1284   -2.4997    0.0000 C   0  0  0  0  0  0  0  0  0  0  0  0
    2.1284   -1.6582    0.0000 C   0  0  0  0  0  0  0  0  0  0  0  0
    1.4189   -2.9122    0.0000 O   0  0  0  0  0  0  0  0  0  0  0  0
    1.4189   -1.2457    0.0000 C   0  0  0  0  0  0  0  0  0  0  0  0
    0.6930   -2.4997    0.0000 C   0  0  0  0  0  0  0  0  0  0  0  0
    0.6930   -1.6582    0.0000 C   0  0  0  0  0  0  0  0  0  0  0  0
    1.4189   -0.4207    0.0000 O   0  0  0  0  0  0  0  0  0  0  0  0
    0.0000   -2.9122    0.0000 C   0  0  0  0  0  0  0  0  0  0  0  0
    0.0000   -1.2540    0.0000 O   0  0  0  0  0  0  0  0  0  0  0  0
    2.1284    0.0000    0.0000 C   0  0  0  0  0  0  0  0  0  0  0  0
  1  2  1  0
  1  3  1  0
  1  4  1  0
  1  5  1  6
  2  6  1  1
  2  7  1  0
  3  8  1  0
  3  9  1  6
  4 10  1  0
  4 11  2  0
  6 10  1  0
  7 12  1  0
  7 13  1  1
  8 14  1  0
  8 15  2  0
  9 12  2  0
 11 16  1  0
 12 17  1  0
 18 14  1  0
 16 19  2  0
 18 20  1  1
 18 21  1  0
 19 22  1  0
 23 20  1  1
 21 24  1  0
 22 25  1  0
 22 26  1  6
 23 27  1  0
 23 28  1  0
 23 29  1  0
 24 30  1  1
 24 27  1  0
 25 31  1  6
 25 32  1  0
 33 28  1  1
 29 34  2  0
 30 35  1  0
 36 31  1  6
 32 37  1  0
 32 35  2  0
 33 38  1  0
 33 39  1  0
 34 38  1  0
 36 40  1  0
 36 41  1  0
 38 42  1  6
 39 43  1  0
 39 44  1  1
 40 45  1  0
 41 46  1  0
 43 47  1  0
 45 48  1  0
 45 49  1  1
 46 50  1  1
 46 48  1  0
 48 51  1  6
 49 52  1  0
 53 51  1  6
 53 54  1  0
 53 55  1  0
 54 56  1  0
 55 57  1  0
 56 58  1  0
 56 59  1  1
 57 60  1  1
 57 58  1  0
 58 61  1  6
 59 62  1  0
M  END
>  <Formula>  (455) 
C48H72O14

>  <FW>  (455) 
873.0769

>  <DSSTox_CID>  (455) 
3892

>  <NR-AR>  (455) 
0

>  <NR-AR-LBD>  (455) 
0

>  <NR-AhR>  (455) 
0

>  <SR-ARE>  (455) 
1

>  <SR-ATAD5>  (455) 
0

>  <SR-HSE>  (455) 
0

>  <SR-MMP>  (455) 
1

$$$$
NCGC00254012-01
     RDKit          2D

 29 32  0  0  0  0  0  0  0  0999 V2000
    1.1233    0.0000    0.0000 C   0  0  0  0  0  0  0  0  0  0  0  0
    0.7169   -0.7169    0.0000 C   0  0  0  0  0  0  0  0  0  0  0  0
    0.2956   -1.4337    0.0000 C   0  0  0  0  0  0  0  0  0  0  0  0
    0.0000   -0.2956    0.0000 O   0  0  0  0  0  0  0  0  0  0  0  0
    1.4263   -1.1233    0.0000 C   0  0  0  0  0  0  0  0  0  0  0  0
    1.4263   -1.9510    0.0000 C   0  0  0  0  0  0  0  0  0  0  0  0
    2.1432   -2.3722    0.0000 N   0  0  0  0  0  0  0  0  0  0  0  0
    2.8600   -1.9510    0.0000 N   0  0  0  0  0  0  0  0  0  0  0  0
    3.6434   -2.2097    0.0000 C   0  0  0  0  0  0  0  0  0  0  0  0
    4.1311   -1.5445    0.0000 C   0  0  0  0  0  0  0  0  0  0  0  0
    3.6434   -0.8794    0.0000 N   0  0  0  0  0  0  0  0  0  0  0  0
    2.8600   -1.1233    0.0000 C   0  0  0  0  0  0  0  0  0  0  0  0
    2.1432   -0.7169    0.0000 N   0  0  0  0  0  0  0  0  0  0  0  0
    3.9021   -3.0004    0.0000 C   0  0  0  0  0  0  0  0  0  0  0  0
    3.3478   -3.6138    0.0000 C   0  0  0  0  0  0  0  0  0  0  0  0
    3.6064   -4.3898    0.0000 C   0  0  0  0  0  0  0  0  0  0  0  0
    4.4120   -4.5746    0.0000 C   0  0  0  0  0  0  0  0  0  0  0  0
    4.6706   -5.3579    0.0000 F   0  0  0  0  0  0  0  0  0  0  0  0
    4.9736   -3.9537    0.0000 C   0  0  0  0  0  0  0  0  0  0  0  0
    4.7076   -3.1704    0.0000 C   0  0  0  0  0  0  0  0  0  0  0  0
    5.7792   -4.1237    0.0000 C   0  0  0  0  0  0  0  0  0  0  0  0
    6.0231   -4.9071    0.0000 C   0  0  0  0  0  0  0  0  0  0  0  0
    5.4762   -5.5279    0.0000 F   0  0  0  0  0  0  0  0  0  0  0  0
    6.8434   -5.0919    0.0000 C   0  0  0  0  0  0  0  0  0  0  0  0
    7.3902   -4.4711    0.0000 C   0  0  0  0  0  0  0  0  0  0  0  0
    7.1316   -3.6877    0.0000 C   0  0  0  0  0  0  0  0  0  0  0  0
    6.3260   -3.5178    0.0000 C   0  0  0  0  0  0  0  0  0  0  0  0
    6.0747   -2.7270    0.0000 C   0  0  0  0  0  0  0  0  0  0  0  0
    5.8161   -1.9436    0.0000 N   0  0  0  0  0  0  0  0  0  0  0  0
  1  2  1  0
  2  3  1  0
  2  4  1  0
  2  5  1  0
  5  6  1  0
  5 13  2  0
  6  7  2  0
  7  8  1  0
  8  9  1  0
  8 12  1  0
  9 10  2  0
  9 14  1  0
 10 11  1  0
 11 12  2  0
 12 13  1  0
 14 15  2  0
 14 20  1  0
 15 16  1  0
 16 17  2  0
 17 18  1  0
 17 19  1  0
 19 20  2  0
 19 21  1  0
 21 22  2  0
 21 27  1  0
 22 23  1  0
 22 24  1  0
 24 25  2  0
 25 26  1  0
 26 27  2  0
 27 28  1  0
 28 29  3  0
M  END
>  <Formula>  (456) 
C21H15F2N5O

>  <FW>  (456) 
391.3735

>  <DSSTox_CID>  (456) 
27330

>  <NR-Aromatase>  (456) 
1

>  <NR-AR>  (456) 
0

>  <NR-ER>  (456) 
0

>  <NR-ER-LBD>  (456) 
0

>  <SR-ATAD5>  (456) 
0

>  <SR-HSE>  (456) 
0

>  <SR-MMP>  (456) 
1

>  <SR-p53>  (456) 
0

$$$$
NCGC00164604-01
     RDKit          2D

 31 32  0  0  1  0  0  0  0  0999 V2000
    0.4295    0.0000    0.0000 Na  0  0  0  0  0 15  0  0  0  0  0  0
    0.0000   -0.9294    0.0000 O   0  0  0  0  0  0  0  0  0  0  0  0
    0.8238   -0.9294    0.0000 C   0  0  0  0  0  0  0  0  0  0  0  0
    1.2322   -1.6335    0.0000 C   0  0  0  0  0  0  0  0  0  0  0  0
    2.0630   -1.6335    0.0000 C   0  0  0  0  0  0  0  0  0  0  0  0
    2.4714   -2.3517    0.0000 C   0  0  0  0  0  0  0  0  0  0  0  0
    3.2951   -2.3517    0.0000 C   0  0  0  0  0  0  0  0  0  0  0  0
    3.7176   -3.0698    0.0000 C   0  0  0  0  0  0  0  0  0  0  0  0
    3.2951   -3.7810    0.0000 C   0  0  0  0  0  0  0  0  0  0  0  0
    3.7176   -4.4991    0.0000 C   0  0  0  0  0  0  0  0  0  0  0  0
    3.3726   -5.2455    0.0000 C   0  0  0  0  0  0  0  0  0  0  0  0
    3.9922   -5.8088    0.0000 C   0  0  0  0  0  0  0  0  0  0  0  0
    4.7103   -5.3863    0.0000 C   0  0  0  0  0  0  0  0  0  0  0  0
    4.5344   -4.5836    0.0000 N   0  0  0  0  0  0  0  0  0  0  0  0
    5.0906   -3.9711    0.0000 C   0  0  0  0  0  0  0  0  0  0  0  0
    5.8932   -4.1400    0.0000 C   0  0  0  0  0  0  0  0  0  0  0  0
    4.8301   -3.1895    0.0000 C   0  0  0  0  0  0  0  0  0  0  0  0
    5.4144   -5.8088    0.0000 C   0  0  0  0  0  0  0  0  0  0  0  0
    5.4144   -6.6325    0.0000 C   0  0  0  0  0  0  0  0  0  0  0  0
    4.7103   -7.0409    0.0000 C   0  0  0  0  0  0  0  0  0  0  0  0
    3.9922   -6.6325    0.0000 C   0  0  0  0  0  0  0  0  0  0  0  0
    2.5699   -5.4144    0.0000 C   0  0  0  0  0  0  0  0  0  0  0  0
    2.3235   -6.2030    0.0000 C   0  0  0  0  0  0  0  0  0  0  0  0
    1.5138   -6.3720    0.0000 C   0  0  0  0  0  0  0  0  0  0  0  0
    0.9576   -5.7665    0.0000 C   0  0  0  0  0  0  0  0  0  0  0  0
    1.2040   -4.9779    0.0000 C   0  0  0  0  0  0  0  0  0  0  0  0
    2.0137   -4.8089    0.0000 C   0  0  0  0  0  0  0  0  0  0  0  0
    0.1479   -5.9355    0.0000 F   0  0  0  0  0  0  0  0  0  0  0  0
    3.7176   -1.6335    0.0000 O   0  0  0  0  0  0  0  0  0  0  0  0
    2.4714   -0.9294    0.0000 O   0  0  0  0  0  0  0  0  0  0  0  0
    1.2322   -0.2112    0.0000 O   0  0  0  0  0  0  0  0  0  0  0  0
  2  3  2  0
  3  4  1  0
  3 31  1  0
  4  5  1  0
  5  6  1  0
  5 30  1  6
  6  7  1  0
  7  8  1  0
  7 29  1  6
  8  9  2  0
  9 10  1  0
 10 11  2  0
 10 14  1  0
 11 12  1  0
 11 22  1  0
 12 13  2  0
 12 21  1  0
 13 14  1  0
 13 18  1  0
 14 15  1  0
 15 16  1  0
 15 17  1  0
 18 19  2  0
 19 20  1  0
 20 21  2  0
 22 23  2  0
 22 27  1  0
 23 24  1  0
 24 25  2  0
 25 26  1  0
 25 28  1  0
 26 27  2  0
M  CHG  2   1   1  31  -1
M  END
>  <Formula>  (457) 
C24H25FNNaO4

>  <FW>  (457) 
433.4478 (22.9892+410.4586)

>  <DSSTox_CID>  (457) 
24758

>  <NR-Aromatase>  (457) 
1

>  <NR-AR>  (457) 
0

>  <NR-ER>  (457) 
0

>  <NR-ER-LBD>  (457) 
0

>  <NR-AhR>  (457) 
1

>  <SR-ATAD5>  (457) 
0

>  <SR-MMP>  (457) 
1

>  <SR-p53>  (457) 
0

$$$$
NCGC00095190-01
     RDKit          2D

 44 49  0  0  1  0  0  0  0  0999 V2000
    4.2969   -7.4336    0.0000 Cl  0  0  0  0  0  0  0  0  0  0  0  0
    5.0188   -6.6086    0.0000 C   0  0  0  0  0  0  0  0  0  0  0  0
    4.3055   -6.1961    0.0000 C   0  0  0  0  0  0  0  0  0  0  0  0
    4.3055   -5.3711    0.0000 C   0  0  0  0  0  0  0  0  0  0  0  0
    3.5836   -4.9586    0.0000 C   0  0  0  0  0  0  0  0  0  0  0  0
    2.8016   -5.2078    0.0000 C   0  0  0  0  0  0  0  0  0  0  0  0
    2.3118   -4.5461    0.0000 N   0  0  0  0  0  0  0  0  0  0  0  0
    1.4953   -4.4602    0.0000 C   0  0  0  0  0  0  0  0  0  0  0  0
    1.0054   -5.1219    0.0000 O   0  0  0  0  0  0  0  0  0  0  0  0
    1.1602   -3.7039    0.0000 C   0  0  0  0  0  0  0  0  0  0  0  0
    1.6414   -3.0336    0.0000 C   0  0  0  0  0  0  0  0  0  0  0  0
    2.4664   -3.1196    0.0000 C   0  0  0  0  0  0  0  0  0  0  0  0
    2.8016   -3.8758    0.0000 C   0  0  0  0  0  0  0  0  0  0  0  0
    3.5836   -4.1336    0.0000 C   0  0  0  0  0  0  0  0  0  0  0  0
    4.3055   -3.7125    0.0000 N   0  0  0  0  0  0  0  0  0  0  0  0
    5.0188   -4.1336    0.0000 C   0  0  0  0  0  0  0  0  0  0  0  0
    5.7321   -3.7125    0.0000 C   0  0  0  0  0  0  0  0  0  0  0  0
    6.4454   -4.1336    0.0000 C   0  0  0  0  0  0  0  0  0  0  0  0
    6.4454   -4.9586    0.0000 C   0  0  0  0  0  0  0  0  0  0  0  0
    7.1672   -5.3711    0.0000 O   0  0  0  0  0  0  0  0  0  0  0  0
    7.8805   -4.9586    0.0000 C   0  0  0  0  0  0  0  0  0  0  0  0
    8.5938   -5.3711    0.0000 O   0  0  0  0  0  0  0  0  0  0  0  0
    7.8805   -4.1336    0.0000 N   0  0  0  0  0  0  0  0  0  0  0  0
    7.1672   -3.7125    0.0000 C   0  0  0  0  0  0  0  0  0  0  0  0
    7.1672   -2.8875    0.0000 C   0  0  0  0  0  0  0  0  0  0  0  0
    7.8805   -2.4750    0.0000 C   0  0  0  0  0  0  0  0  0  0  0  0
    8.5938   -2.8875    0.0000 C   0  0  0  0  0  0  0  0  0  0  0  0
    8.5938   -3.7125    0.0000 C   0  0  0  0  0  0  0  0  0  0  0  0
    7.8805   -1.6500    0.0000 N   0  0  0  0  0  0  0  0  0  0  0  0
    7.1672   -1.2375    0.0000 C   0  0  0  0  0  0  0  0  0  0  0  0
    7.1672   -0.4125    0.0000 C   0  0  0  0  0  0  0  0  0  0  0  0
    7.8805    0.0000    0.0000 C   0  0  0  0  0  0  0  0  0  0  0  0
    8.5938   -0.4125    0.0000 C   0  0  0  0  0  0  0  0  0  0  0  0
    8.5938   -1.2375    0.0000 C   0  0  0  0  0  0  0  0  0  0  0  0
    5.7321   -5.3711    0.0000 C   0  0  0  0  0  0  0  0  0  0  0  0
    5.0188   -4.9586    0.0000 C   0  0  0  0  0  0  0  0  0  0  0  0
    1.3062   -2.2774    0.0000 C   0  0  0  0  0  0  0  0  0  0  0  0
    2.1055   -2.0797    0.0000 O   0  0  0  0  0  0  0  0  0  0  0  0
    1.2461   -1.4524    0.0000 C   0  0  0  0  0  0  0  0  0  0  0  0
    0.5070   -1.0914    0.0000 C   0  0  0  0  0  0  0  0  0  0  0  0
    0.4812   -2.1914    0.0000 C   0  0  0  0  0  0  0  0  0  0  0  0
    0.1461   -1.4351    0.0000 O   0  0  0  0  0  0  0  0  0  0  0  0
    0.0000   -2.8617    0.0000 O   0  0  0  0  0  0  0  0  0  0  0  0
    0.3351   -3.6180    0.0000 C   0  0  0  0  0  0  0  0  0  0  0  0
  2  3  1  0
  3  4  1  0
  4  5  2  0
  4 36  1  0
  5  6  1  0
  5 14  1  0
  6  7  1  0
  7  8  1  0
  7 13  1  0
  8  9  2  0
  8 10  1  0
 10 11  2  0
 10 44  1  0
 11 12  1  0
 11 37  1  0
 12 13  2  0
 13 14  1  0
 14 15  2  0
 15 16  1  0
 16 17  1  0
 16 36  2  0
 17 18  2  0
 18 19  1  0
 19 20  1  0
 19 35  2  0
 20 21  1  0
 21 22  2  0
 21 23  1  0
 23 24  1  0
 23 28  1  0
 24 25  1  0
 25 26  1  0
 26 27  1  0
 26 29  1  0
 27 28  1  0
 29 30  1  0
 29 34  1  0
 30 31  1  0
 31 32  1  0
 32 33  1  0
 33 34  1  0
 35 36  1  0
 37 38  1  1
 37 39  1  0
 37 41  1  0
 39 40  1  0
 41 42  2  0
 41 43  1  0
 43 44  1  0
M  END
>  <Formula>  (458) 
C33H39ClN4O6

>  <FW>  (458) 
623.1390 (36.4609+586.6780)

>  <DSSTox_CID>  (458) 
25953

>  <NR-AR>  (458) 
0

>  <NR-AR-LBD>  (458) 
0

>  <NR-ER-LBD>  (458) 
0

>  <NR-AhR>  (458) 
0

>  <SR-ATAD5>  (458) 
0

>  <SR-MMP>  (458) 
1

>  <SR-p53>  (458) 
1

$$$$
NCGC00024584-03
     RDKit          2D

 43 49  0  0  1  0  0  0  0  0999 V2000
    2.1468   -4.1999    0.0000 C   0  0  0  0  0  0  0  0  0  0  0  0
    2.1468   -5.8470    0.0000 C   0  0  0  0  0  0  0  0  0  0  0  0
    1.9282   -6.6354    0.0000 C   0  0  0  0  0  0  0  0  0  0  0  0
    3.5676   -1.7409    0.0000 N   0  0  0  0  0  0  0  0  0  0  0  0
    1.4285   -5.4332    0.0000 C   0  0  0  0  0  0  0  0  0  0  0  0
    1.4285   -4.6136    0.0000 C   0  0  0  0  0  0  0  0  0  0  0  0
    2.8493   -4.6136    0.0000 C   0  0  0  0  0  0  0  0  0  0  0  0
    2.1468   -3.3802    0.0000 C   0  0  0  0  0  0  0  0  0  0  0  0
    0.9212   -6.6354    0.0000 N   0  0  0  0  0  0  0  0  0  0  0  0
    2.8493   -2.9664    0.0000 C   0  0  0  0  0  0  0  0  0  0  0  0
    3.5676   -4.1999    0.0000 N   0  0  0  0  0  0  0  0  0  0  0  0
    2.8493   -2.1389    0.0000 C   0  0  0  0  0  0  0  0  0  0  0  0
    0.7182   -5.8470    0.0000 C   0  0  0  0  0  0  0  0  0  0  0  0
    2.8493   -5.4332    0.0000 C   0  0  0  0  0  0  0  0  0  0  0  0
    3.5676   -3.3802    0.0000 C   0  0  0  0  0  0  0  0  0  0  0  0
    2.1468   -1.7409    0.0000 O   0  0  0  0  0  0  0  0  0  0  0  0
    2.4746   -7.2522    0.0000 Br  0  0  0  0  0  0  0  0  0  0  0  0
    0.7182   -4.1999    0.0000 C   0  0  0  0  0  0  0  0  0  0  0  0
    4.2701   -4.6136    0.0000 C   0  0  0  0  0  0  0  0  0  0  0  0
    0.0000   -5.4332    0.0000 C   0  0  0  0  0  0  0  0  0  0  0  0
    0.0000   -4.6136    0.0000 C   0  0  0  0  0  0  0  0  0  0  0  0
    5.6596   -2.1389    0.0000 N   0  0  0  0  0  0  0  0  0  0  0  0
    5.6596   -1.3037    0.0000 C   0  0  0  0  0  0  0  0  0  0  0  0
    4.3950   -1.7252    0.0000 C   0  0  0  0  0  0  0  0  0  0  0  0
    4.8712   -2.3965    0.0000 C   0  0  0  0  0  0  0  0  0  0  0  0
    4.8712   -1.0538    0.0000 O   0  0  0  0  0  0  0  0  0  0  0  0
    6.3778   -2.5449    0.0000 C   0  0  0  0  0  0  0  0  0  0  0  0
    7.0882   -2.1389    0.0000 C   0  0  0  0  0  0  0  0  0  0  0  0
    7.0882   -1.3037    0.0000 N   0  0  0  0  0  0  0  0  0  0  0  0
    6.3778   -0.9055    0.0000 C   0  0  0  0  0  0  0  0  0  0  0  0
    4.6214   -3.1772    0.0000 O   0  0  0  0  0  0  0  0  0  0  0  0
    7.8064   -2.5449    0.0000 O   0  0  0  0  0  0  0  0  0  0  0  0
    5.6987   -0.4606    0.0000 O   0  0  0  0  0  0  0  0  0  0  0  0
    6.3778   -3.3724    0.0000 C   0  0  0  0  0  0  0  0  0  0  0  0
    3.9735   -1.0149    0.0000 C   0  0  0  0  0  0  0  0  0  0  0  0
    7.7049   -0.7650    0.0000 C   0  0  0  0  0  0  0  0  0  0  0  0
    6.5418   -0.0937    0.0000 C   0  0  0  0  0  0  0  0  0  0  0  0
    7.3614    0.0000    0.0000 C   0  0  0  0  0  0  0  0  0  0  0  0
    7.0882   -3.7939    0.0000 C   0  0  0  0  0  0  0  0  0  0  0  0
    4.3716   -0.2889    0.0000 C   0  0  0  0  0  0  0  0  0  0  0  0
    3.1382   -1.0305    0.0000 C   0  0  0  0  0  0  0  0  0  0  0  0
    7.0882   -4.6136    0.0000 C   0  0  0  0  0  0  0  0  0  0  0  0
    7.8064   -3.3724    0.0000 C   0  0  0  0  0  0  0  0  0  0  0  0
  1  8  2  0
  1  6  1  0
  1  7  1  0
  2 14  1  0
  2  3  2  0
  2  5  1  0
  3 17  1  0
  3  9  1  0
  4 12  1  0
 24  4  1  6
  5  6  2  0
  5 13  1  0
  6 18  1  0
  7 11  1  0
  7 14  1  6
  8 10  1  0
  9 13  1  0
 10 12  1  1
 10 15  1  0
 11 15  1  0
 11 19  1  0
 12 16  2  0
 13 20  2  0
 18 21  2  0
 20 21  1  0
 22 23  1  0
 22 25  1  0
 22 27  1  0
 23 26  1  0
 23 30  1  0
 23 33  1  6
 24 25  1  0
 24 35  1  0
 24 26  1  0
 25 31  2  0
 27 28  1  0
 27 34  1  6
 28 29  1  0
 28 32  2  0
 29 36  1  0
 29 30  1  0
 30 37  1  6
 34 39  1  0
 35 40  1  0
 35 41  1  0
 36 38  1  0
 37 38  1  0
 39 42  1  0
 39 43  1  0
M  END
>  <Formula>  (459) 
C32H40BrN5O5

>  <FW>  (459) 
654.5945

>  <DSSTox_CID>  (459) 
2687

>  <NR-AR>  (459) 
0

>  <NR-AR-LBD>  (459) 
0

>  <NR-ER-LBD>  (459) 
0

>  <NR-AhR>  (459) 
0

>  <SR-MMP>  (459) 
1

>  <SR-p53>  (459) 
0

$$$$
NCGC00260468-01
     RDKit          2D

 30 34  0  0  1  0  0  0  0  0999 V2000
    5.7835   -1.9836    0.0000 C   0  0  0  0  0  0  0  0  0  0  0  0
    4.9590   -1.9836    0.0000 O   0  0  0  0  0  0  0  0  0  0  0  0
    4.5437   -2.7027    0.0000 C   0  0  0  0  0  0  0  0  0  0  0  0
    4.9590   -3.4155    0.0000 C   0  0  0  0  0  0  0  0  0  0  0  0
    5.7835   -3.4155    0.0000 O   0  0  0  0  0  0  0  0  0  0  0  0
    6.1988   -4.1346    0.0000 C   0  0  0  0  0  0  0  0  0  0  0  0
    4.5437   -4.1346    0.0000 C   0  0  0  0  0  0  0  0  0  0  0  0
    3.7193   -4.1346    0.0000 C   0  0  0  0  0  0  0  0  0  0  0  0
    3.3040   -3.4155    0.0000 C   0  0  0  0  0  0  0  0  0  0  0  0
    3.7193   -2.7027    0.0000 C   0  0  0  0  0  0  0  0  0  0  0  0
    2.4795   -3.4155    0.0000 C   0  0  0  0  0  0  0  0  0  0  0  0
    2.0642   -4.1346    0.0000 C   0  0  0  0  0  0  0  0  0  0  0  0
    1.2398   -4.1346    0.0000 C   0  0  0  0  0  0  0  0  0  0  0  0
    0.9856   -4.9219    0.0000 C   0  0  0  0  0  0  0  0  0  0  0  0
    1.6551   -5.4053    0.0000 O   0  0  0  0  0  0  0  0  0  0  0  0
    2.3246   -4.9219    0.0000 C   0  0  0  0  0  0  0  0  0  0  0  0
    3.1056   -5.1760    0.0000 O   0  0  0  0  0  0  0  0  0  0  0  0
    0.8244   -3.4155    0.0000 C   0  0  0  0  0  0  0  0  0  0  0  0
    0.0000   -3.4155    0.0000 O   0  0  0  0  0  0  0  0  0  0  0  0
    1.2398   -2.7027    0.0000 C   0  0  0  0  0  0  0  0  0  0  0  0
    0.8244   -1.9836    0.0000 C   0  0  0  0  0  0  0  0  0  0  0  0
    1.2398   -1.2708    0.0000 C   0  0  0  0  0  0  0  0  0  0  0  0
    2.0642   -1.2708    0.0000 C   0  0  0  0  0  0  0  0  0  0  0  0
    2.3246   -0.4835    0.0000 O   0  0  0  0  0  0  0  0  0  0  0  0
    1.6551    0.0000    0.0000 C   0  0  0  0  0  0  0  0  0  0  0  0
    0.9856   -0.4835    0.0000 O   0  0  0  0  0  0  0  0  0  0  0  0
    2.4795   -1.9836    0.0000 C   0  0  0  0  0  0  0  0  0  0  0  0
    2.0642   -2.7027    0.0000 C   0  0  0  0  0  0  0  0  0  0  0  0
    4.9590   -4.8475    0.0000 O   0  0  0  0  0  0  0  0  0  0  0  0
    5.7835   -4.8475    0.0000 C   0  0  0  0  0  0  0  0  0  0  0  0
  1  2  1  0
  2  3  1  0
  3  4  2  0
  3 10  1  0
  4  5  1  0
  4  7  1  0
  5  6  1  0
  7  8  2  0
  7 29  1  0
  8  9  1  0
  9 10  2  0
 11  9  1  1
 11 12  1  0
 11 28  1  0
 12 13  1  0
 12 16  1  1
 13 14  1  6
 13 18  1  0
 14 15  1  0
 15 16  1  0
 16 17  2  0
 18 19  1  1
 18 20  1  0
 20 21  2  0
 20 28  1  0
 21 22  1  0
 22 23  2  0
 22 26  1  0
 23 24  1  0
 23 27  1  0
 24 25  1  0
 25 26  1  0
 27 28  2  0
 29 30  1  0
M  END
>  <Formula>  (460) 
C22H22O8

>  <FW>  (460) 
414.4053

>  <DSSTox_CID>  (460) 
25645

>  <NR-Aromatase>  (460) 
0

>  <NR-AR>  (460) 
0

>  <NR-ER>  (460) 
0

>  <NR-AhR>  (460) 
1

>  <SR-HSE>  (460) 
0

>  <SR-MMP>  (460) 
1

>  <SR-p53>  (460) 
0

$$$$
NCGC00017042-01
     RDKit          2D

 87 96  0  0  0  0  0  0  0  0999 V2000
   14.3748   -5.9309    0.0000 O   0  0  0  0  0  0  0  0  0  0  0  0
   13.5706   -6.0817    0.0000 C   0  0  0  0  0  0  0  0  0  0  0  0
   13.2858   -6.8523    0.0000 O   0  0  0  0  0  0  0  0  0  0  0  0
   13.0345   -5.4450    0.0000 C   0  0  0  0  0  0  0  0  0  0  0  0
   12.2304   -5.5958    0.0000 C   0  0  0  0  0  0  0  0  0  0  0  0
   11.6942   -4.9591    0.0000 C   0  0  0  0  0  0  0  0  0  0  0  0
   10.8900   -5.1099    0.0000 C   0  0  0  0  0  0  0  0  0  0  0  0
   10.3706   -4.4733    0.0000 C   0  0  0  0  0  0  0  0  0  0  0  0
   10.6387   -3.7026    0.0000 C   0  0  0  0  0  0  0  0  0  0  0  0
   11.4596   -3.5686    0.0000 C   0  0  0  0  0  0  0  0  0  0  0  0
   11.9790   -4.1885    0.0000 C   0  0  0  0  0  0  0  0  0  0  0  0
   12.8000   -4.0544    0.0000 C   0  0  0  0  0  0  0  0  0  0  0  0
   12.9843   -2.9989    0.0000 C   0  0  0  0  0  0  0  0  0  0  0  0
   13.9057   -2.4628    0.0000 C   0  0  0  0  0  0  0  0  0  0  0  0
   13.9057   -1.6419    0.0000 C   0  0  0  0  0  0  0  0  0  0  0  0
   13.1853   -1.2230    0.0000 C   0  0  0  0  0  0  0  0  0  0  0  0
   13.1853   -0.4021    0.0000 C   0  0  0  0  0  0  0  0  0  0  0  0
   13.9057    0.0000    0.0000 C   0  0  0  0  0  0  0  0  0  0  0  0
   14.6094   -0.4021    0.0000 C   0  0  0  0  0  0  0  0  0  0  0  0
   14.6094   -1.2230    0.0000 C   0  0  0  0  0  0  0  0  0  0  0  0
   15.3298   -1.6419    0.0000 C   0  0  0  0  0  0  0  0  0  0  0  0
   15.3298   -2.4628    0.0000 C   0  0  0  0  0  0  0  0  0  0  0  0
   16.0335   -2.8649    0.0000 C   0  0  0  0  0  0  0  0  0  0  0  0
   16.7539   -2.4628    0.0000 O   0  0  0  0  0  0  0  0  0  0  0  0
   16.0335   -3.6858    0.0000 O   0  0  0  0  0  0  0  0  0  0  0  0
   14.6094   -2.8649    0.0000 C   0  0  0  0  0  0  0  0  0  0  0  0
   14.7602   -3.6858    0.0000 O   0  0  0  0  0  0  0  0  0  0  0  0
   13.3194   -4.6743    0.0000 C   0  0  0  0  0  0  0  0  0  0  0  0
   14.1403   -4.6743    0.0000 O   0  0  0  0  0  0  0  0  0  0  0  0
    0.0000   -4.4900    0.0000 C   0  0  0  0  0  0  0  0  0  0  0  0
    0.4188   -3.7864    0.0000 N   0  0  0  0  0  0  0  0  0  0  0  0
    0.0000   -3.0659    0.0000 C   0  0  0  0  0  0  0  0  0  0  0  0
    1.2398   -3.7864    0.0000 C   0  0  0  0  0  0  0  0  0  0  0  0
    1.6419   -3.0659    0.0000 C   0  0  0  0  0  0  0  0  0  0  0  0
    2.4628   -3.0659    0.0000 C   0  0  0  0  0  0  0  0  0  0  0  0
    2.8817   -3.7864    0.0000 C   0  0  0  0  0  0  0  0  0  0  0  0
    3.7026   -3.7864    0.0000 N   0  0  0  0  0  0  0  0  0  0  0  0
    4.1047   -3.0659    0.0000 C   0  0  0  0  0  0  0  0  0  0  0  0
    4.1047   -4.4900    0.0000 C   0  0  0  0  0  0  0  0  0  0  0  0
    3.7026   -5.2105    0.0000 C   0  0  0  0  0  0  0  0  0  0  0  0
    2.8817   -5.2105    0.0000 C   0  0  0  0  0  0  0  0  0  0  0  0
    2.4628   -4.4900    0.0000 C   0  0  0  0  0  0  0  0  0  0  0  0
    1.6419   -4.4900    0.0000 C   0  0  0  0  0  0  0  0  0  0  0  0
    4.9424   -4.4900    0.0000 C   0  0  0  0  0  0  0  0  0  0  0  0
    5.3445   -3.7864    0.0000 C   0  0  0  0  0  0  0  0  0  0  0  0
    6.1654   -3.7864    0.0000 C   0  0  0  0  0  0  0  0  0  0  0  0
    6.6513   -4.4565    0.0000 C   0  0  0  0  0  0  0  0  0  0  0  0
    7.4387   -4.1885    0.0000 C   0  0  0  0  0  0  0  0  0  0  0  0
    8.0922   -4.6743    0.0000 C   0  0  0  0  0  0  0  0  0  0  0  0
    7.4387   -3.3675    0.0000 N   0  0  0  0  0  0  0  0  0  0  0  0
    8.0922   -2.8817    0.0000 C   0  0  0  0  0  0  0  0  0  0  0  0
    8.8461   -3.2168    0.0000 C   0  0  0  0  0  0  0  0  0  0  0  0
    9.5162   -2.7477    0.0000 C   0  0  0  0  0  0  0  0  0  0  0  0
    9.4324   -1.9267    0.0000 C   0  0  0  0  0  0  0  0  0  0  0  0
    8.6785   -1.5916    0.0000 C   0  0  0  0  0  0  0  0  0  0  0  0
    8.0083   -2.0775    0.0000 C   0  0  0  0  0  0  0  0  0  0  0  0
    6.6513   -3.1162    0.0000 C   0  0  0  0  0  0  0  0  0  0  0  0
    6.4000   -2.3288    0.0000 C   0  0  0  0  0  0  0  0  0  0  0  0
    0.0000   -8.9298    0.0000 C   0  0  0  0  0  0  0  0  0  0  0  0
    0.4188   -8.2262    0.0000 N   0  0  0  0  0  0  0  0  0  0  0  0
    0.0000   -7.5057    0.0000 C   0  0  0  0  0  0  0  0  0  0  0  0
    1.2398   -8.2262    0.0000 C   0  0  0  0  0  0  0  0  0  0  0  0
    1.6419   -7.5057    0.0000 C   0  0  0  0  0  0  0  0  0  0  0  0
    2.4628   -7.5057    0.0000 C   0  0  0  0  0  0  0  0  0  0  0  0
    2.8817   -8.2262    0.0000 C   0  0  0  0  0  0  0  0  0  0  0  0
    3.7026   -8.2262    0.0000 N   0  0  0  0  0  0  0  0  0  0  0  0
    4.1047   -7.5057    0.0000 C   0  0  0  0  0  0  0  0  0  0  0  0
    4.1047   -8.9298    0.0000 C   0  0  0  0  0  0  0  0  0  0  0  0
    3.7026   -9.6503    0.0000 C   0  0  0  0  0  0  0  0  0  0  0  0
    2.8817   -9.6503    0.0000 C   0  0  0  0  0  0  0  0  0  0  0  0
    2.4628   -8.9298    0.0000 C   0  0  0  0  0  0  0  0  0  0  0  0
    1.6419   -8.9298    0.0000 C   0  0  0  0  0  0  0  0  0  0  0  0
    4.9424   -8.9298    0.0000 C   0  0  0  0  0  0  0  0  0  0  0  0
    5.3445   -8.2262    0.0000 C   0  0  0  0  0  0  0  0  0  0  0  0
    6.1654   -8.2262    0.0000 C   0  0  0  0  0  0  0  0  0  0  0  0
    6.6513   -8.8963    0.0000 C   0  0  0  0  0  0  0  0  0  0  0  0
    7.4387   -8.6450    0.0000 C   0  0  0  0  0  0  0  0  0  0  0  0
    8.0922   -9.1141    0.0000 C   0  0  0  0  0  0  0  0  0  0  0  0
    7.4387   -7.8073    0.0000 N   0  0  0  0  0  0  0  0  0  0  0  0
    8.0922   -7.3382    0.0000 C   0  0  0  0  0  0  0  0  0  0  0  0
    8.8461   -7.6733    0.0000 C   0  0  0  0  0  0  0  0  0  0  0  0
    9.5162   -7.1874    0.0000 C   0  0  0  0  0  0  0  0  0  0  0  0
    9.4324   -6.3665    0.0000 C   0  0  0  0  0  0  0  0  0  0  0  0
    8.6785   -6.0314    0.0000 C   0  0  0  0  0  0  0  0  0  0  0  0
    8.0083   -6.5172    0.0000 C   0  0  0  0  0  0  0  0  0  0  0  0
    6.6513   -7.5560    0.0000 C   0  0  0  0  0  0  0  0  0  0  0  0
    6.4000   -6.7853    0.0000 C   0  0  0  0  0  0  0  0  0  0  0  0
  1  2  1  0
  2  3  2  0
  2  4  1  0
  4  5  2  0
  4 28  1  0
  5  6  1  0
  6  7  2  0
  6 11  1  0
  7  8  1  0
  8  9  2  0
  9 10  1  0
 10 11  2  0
 11 12  1  0
 12 13  1  0
 12 28  2  0
 13 14  1  0
 14 15  1  0
 14 26  2  0
 15 16  2  0
 15 20  1  0
 16 17  1  0
 17 18  2  0
 18 19  1  0
 19 20  2  0
 20 21  1  0
 21 22  2  0
 22 23  1  0
 22 26  1  0
 23 24  1  0
 23 25  2  0
 26 27  1  0
 28 29  1  0
 30 31  1  0
 31 32  1  0
 31 33  1  0
 33 34  2  0
 33 43  1  0
 34 35  1  0
 35 36  2  0
 36 37  1  0
 36 42  1  0
 37 38  1  0
 37 39  2  0
 39 40  1  0
 39 44  1  0
 40 41  2  0
 41 42  1  0
 42 43  2  0
 44 45  2  0
 45 46  1  0
 46 47  1  0
 46 57  2  0
 47 48  2  0
 48 49  1  0
 48 50  1  0
 50 51  1  0
 50 57  1  0
 51 52  2  0
 51 56  1  0
 52 53  1  0
 53 54  2  0
 54 55  1  0
 55 56  2  0
 57 58  1  0
 59 60  1  0
 60 61  1  0
 60 62  1  0
 62 63  2  0
 62 72  1  0
 63 64  1  0
 64 65  2  0
 65 66  1  0
 65 71  1  0
 66 67  1  0
 66 68  2  0
 68 69  1  0
 68 73  1  0
 69 70  2  0
 70 71  1  0
 71 72  2  0
 73 74  2  0
 74 75  1  0
 75 76  1  0
 75 86  2  0
 76 77  2  0
 77 78  1  0
 77 79  1  0
 79 80  1  0
 79 86  1  0
 80 81  2  0
 80 85  1  0
 81 82  1  0
 82 83  2  0
 83 84  1  0
 84 85  2  0
 86 87  1  0
M  CHG  4   1  -1  24  -1  37   1  66   1
M  END
>  <Formula>  (461) 
C75H70N6O6

>  <FW>  (461) 
1151.3949 (386.3548+382.5201+382.5201)

>  <DSSTox_CID>  (461) 
3545

>  <NR-AR>  (461) 
0

>  <NR-AR-LBD>  (461) 
0

>  <NR-ER-LBD>  (461) 
0

>  <NR-PPAR-gamma>  (461) 
0

>  <SR-ATAD5>  (461) 
0

>  <SR-MMP>  (461) 
1

>  <SR-p53>  (461) 
1

$$$$
NCGC00182054-02
     RDKit          2D

 28 29  0  0  0  0  0  0  0  0999 V2000
    2.1618   -0.4152    0.0000 C   0  0  0  0  0  0  0  0  0  0  0  0
    2.1618   -1.2312    0.0000 C   0  0  0  0  0  0  0  0  0  0  0  0
    2.8705   -1.6536    0.0000 C   0  0  0  0  0  0  0  0  0  0  0  0
    3.6007   -1.2312    0.0000 C   0  0  0  0  0  0  0  0  0  0  0  0
    3.6007   -0.4152    0.0000 C   0  0  0  0  0  0  0  0  0  0  0  0
    2.8849    0.0000    0.0000 C   0  0  0  0  0  0  0  0  0  0  0  0
    4.3094   -1.6536    0.0000 N   0  0  0  0  0  0  0  0  0  0  0  0
    5.0253   -1.2527    0.0000 O   0  0  0  0  0  0  0  0  0  0  0  0
    4.3094   -2.4911    0.0000 O   0  0  0  0  0  0  0  0  0  0  0  0
    2.8705   -4.0660    0.0000 C   0  0  0  0  0  0  0  0  0  0  0  0
    2.1547   -4.4741    0.0000 C   0  0  0  0  0  0  0  0  0  0  0  0
    2.1547   -5.3044    0.0000 C   0  0  0  0  0  0  0  0  0  0  0  0
    2.8634   -5.7124    0.0000 N   0  0  0  0  0  0  0  0  0  0  0  0
    3.5792   -5.3044    0.0000 C   0  0  0  0  0  0  0  0  0  0  0  0
    3.5792   -4.4741    0.0000 C   0  0  0  0  0  0  0  0  0  0  0  0
    4.2951   -4.0660    0.0000 C   0  0  0  0  0  0  0  0  0  0  0  0
    5.0180   -4.4812    0.0000 O   0  0  0  0  0  0  0  0  0  0  0  0
    5.7196   -4.0875    0.0000 C   0  0  0  0  0  0  0  0  0  0  0  0
    6.4426   -4.4812    0.0000 C   0  0  0  0  0  0  0  0  0  0  0  0
    7.1584   -4.0875    0.0000 C   0  0  0  0  0  0  0  0  0  0  0  0
    1.4388   -4.0517    0.0000 C   0  0  0  0  0  0  0  0  0  0  0  0
    1.4460   -3.2285    0.0000 O   0  0  0  0  0  0  0  0  0  0  0  0
    1.4388   -5.7124    0.0000 C   0  0  0  0  0  0  0  0  0  0  0  0
    4.2951   -5.7196    0.0000 C   0  0  0  0  0  0  0  0  0  0  0  0
    4.2951   -3.2499    0.0000 O   0  0  0  0  0  0  0  0  0  0  0  0
    6.4426   -5.3188    0.0000 O   0  0  0  0  0  0  0  0  0  0  0  0
    0.7158   -4.4669    0.0000 O   0  0  0  0  0  0  0  0  0  0  0  0
    0.0000   -4.0517    0.0000 C   0  0  0  0  0  0  0  0  0  0  0  0
  1  6  2  0
  1  2  1  0
  2  3  2  0
  3  4  1  0
  3 10  1  0
  4  5  2  0
  4  7  1  0
  5  6  1  0
  7  8  2  0
  7  9  1  0
 10 11  1  0
 10 15  1  0
 11 21  1  0
 11 12  2  0
 12 13  1  0
 12 23  1  0
 13 14  1  0
 14 15  2  0
 14 24  1  0
 15 16  1  0
 16 17  1  0
 16 25  2  0
 17 18  1  0
 18 19  1  0
 19 20  1  0
 19 26  2  0
 21 22  2  0
 21 27  1  0
 27 28  1  0
M  CHG  2   7   1   9  -1
M  END
>  <Formula>  (462) 
C19H20N2O7

>  <FW>  (462) 
388.3713

>  <DSSTox_CID>  (462) 
28575

>  <NR-AR>  (462) 
0

>  <NR-AR-LBD>  (462) 
0

>  <NR-ER>  (462) 
0

>  <NR-ER-LBD>  (462) 
0

>  <SR-ATAD5>  (462) 
0

>  <SR-MMP>  (462) 
1

>  <SR-p53>  (462) 
0

$$$$
NCGC00024246-05
     RDKit          2D

 38 42  0  0  1  0  0  0  0  0999 V2000
    2.3886   -5.9401    0.0000 C   0  0  0  0  0  0  0  0  0  0  0  0
    1.8622   -5.3115    0.0000 C   0  0  0  0  0  0  0  0  0  0  0  0
    1.0450   -5.4529    0.0000 O   0  0  0  0  0  0  0  0  0  0  0  0
    2.1450   -4.5336    0.0000 C   0  0  0  0  0  0  0  0  0  0  0  0
    1.3278   -4.3922    0.0000 O   0  0  0  0  0  0  0  0  0  0  0  0
    2.1450   -3.7086    0.0000 C   0  0  0  0  0  0  0  0  0  0  0  0
    2.8600   -3.2922    0.0000 C   0  0  0  0  0  0  0  0  0  0  0  0
    2.8600   -2.4750    0.0000 O   0  0  0  0  0  0  0  0  0  0  0  0
    2.1450   -2.0586    0.0000 C   0  0  0  0  0  0  0  0  0  0  0  0
    1.4300   -2.4750    0.0000 C   0  0  0  0  0  0  0  0  0  0  0  0
    0.7150   -2.0586    0.0000 C   0  0  0  0  0  0  0  0  0  0  0  0
    0.0000   -2.4750    0.0000 N   0  0  0  0  0  0  0  0  0  0  0  0
    0.7150   -1.2336    0.0000 C   0  0  0  0  0  0  0  0  0  0  0  0
    0.0000   -0.8250    0.0000 O   0  0  0  0  0  0  0  0  0  0  0  0
    1.4300   -0.8250    0.0000 C   0  0  0  0  0  0  0  0  0  0  0  0
    1.4300    0.0000    0.0000 C   0  0  0  0  0  0  0  0  0  0  0  0
    2.1450   -1.2336    0.0000 O   0  0  0  0  0  0  0  0  0  0  0  0
    3.5750   -3.7086    0.0000 C   0  0  0  0  0  0  0  0  0  0  0  0
    4.2822   -3.2922    0.0000 C   0  0  0  0  0  0  0  0  0  0  0  0
    4.2822   -2.4750    0.0000 O   0  0  0  0  0  0  0  0  0  0  0  0
    4.9972   -3.7086    0.0000 C   0  0  0  0  0  0  0  0  0  0  0  0
    5.7122   -3.2922    0.0000 C   0  0  0  0  0  0  0  0  0  0  0  0
    5.7122   -2.4750    0.0000 O   0  0  0  0  0  0  0  0  0  0  0  0
    6.4272   -3.7086    0.0000 C   0  0  0  0  0  0  0  0  0  0  0  0
    7.1422   -3.2922    0.0000 C   0  0  0  0  0  0  0  0  0  0  0  0
    7.1422   -2.4750    0.0000 O   0  0  0  0  0  0  0  0  0  0  0  0
    7.8572   -2.0586    0.0000 C   0  0  0  0  0  0  0  0  0  0  0  0
    7.8572   -3.7086    0.0000 C   0  0  0  0  0  0  0  0  0  0  0  0
    7.8572   -4.5336    0.0000 C   0  0  0  0  0  0  0  0  0  0  0  0
    7.1422   -4.9422    0.0000 C   0  0  0  0  0  0  0  0  0  0  0  0
    6.4272   -4.5336    0.0000 C   0  0  0  0  0  0  0  0  0  0  0  0
    5.7122   -4.9422    0.0000 C   0  0  0  0  0  0  0  0  0  0  0  0
    5.7122   -5.7672    0.0000 O   0  0  0  0  0  0  0  0  0  0  0  0
    4.9972   -4.5336    0.0000 C   0  0  0  0  0  0  0  0  0  0  0  0
    4.2822   -4.9422    0.0000 C   0  0  0  0  0  0  0  0  0  0  0  0
    4.2822   -5.7672    0.0000 O   0  0  0  0  0  0  0  0  0  0  0  0
    3.5750   -4.5336    0.0000 C   0  0  0  0  0  0  0  0  0  0  0  0
    2.8600   -4.9422    0.0000 C   0  0  0  0  0  0  0  0  0  0  0  0
  1  2  1  0
  2  3  2  0
  4  2  1  0
  4  5  1  6
  4  6  1  0
  4 38  1  0
  6  7  1  0
  7  8  1  6
  7 18  1  0
  9  8  1  1
  9 10  1  0
  9 17  1  0
 10 11  1  0
 11 12  1  6
 11 13  1  0
 13 14  1  6
 13 15  1  0
 15 16  1  6
 15 17  1  0
 18 19  1  0
 18 37  2  0
 19 20  1  0
 19 21  2  0
 21 22  1  0
 21 34  1  0
 22 23  2  0
 22 24  1  0
 24 25  2  0
 24 31  1  0
 25 26  1  0
 25 28  1  0
 26 27  1  0
 28 29  2  0
 29 30  1  0
 30 31  2  0
 31 32  1  0
 32 33  2  0
 32 34  1  0
 34 35  2  0
 35 36  1  0
 35 37  1  0
 37 38  1  0
M  END
>  <Formula>  (463) 
C27H29NO10

>  <FW>  (463) 
527.5199

>  <DSSTox_CID>  (463) 
2883

>  <NR-Aromatase>  (463) 
1

>  <NR-AR>  (463) 
0

>  <NR-AR-LBD>  (463) 
1

>  <NR-ER>  (463) 
1

>  <NR-ER-LBD>  (463) 
1

>  <SR-ATAD5>  (463) 
1

>  <SR-MMP>  (463) 
1

>  <SR-p53>  (463) 
1

$$$$
NCGC00164738-01
     RDKit          2D

 51 55  0  0  1  0  0  0  0  0999 V2000
    1.4249   -2.8390    0.0000 C   0  0  0  0  0  0  0  0  0  0  0  0
    1.4249   -3.6640    0.0000 C   0  0  0  0  0  0  0  0  0  0  0  0
    0.7071   -2.4212    0.0000 C   0  0  0  0  0  0  0  0  0  0  0  0
    0.7071   -4.0711    0.0000 C   0  0  0  0  0  0  0  0  0  0  0  0
    0.0000   -2.8390    0.0000 C   0  0  0  0  0  0  0  0  0  0  0  0
    0.0000   -3.6640    0.0000 C   0  0  0  0  0  0  0  0  0  0  0  0
    2.1427   -2.4212    0.0000 C   0  0  0  0  0  0  0  0  0  0  0  0
    2.8605   -2.8390    0.0000 C   0  0  0  0  0  0  0  0  0  0  0  0
    2.1427   -4.0711    0.0000 C   0  0  0  0  0  0  0  0  0  0  0  0
    2.8605   -3.6640    0.0000 C   0  0  0  0  0  0  0  0  0  0  0  0
    3.5783   -2.4212    0.0000 C   0  0  0  0  0  0  0  0  0  0  0  0
    4.2854   -2.8390    0.0000 C   0  0  0  0  0  0  0  0  0  0  0  0
    3.5783   -4.0711    0.0000 C   0  0  0  0  0  0  0  0  0  0  0  0
    4.2854   -3.6640    0.0000 C   0  0  0  0  0  0  0  0  0  0  0  0
    5.0139   -2.4212    0.0000 C   0  0  0  0  0  0  0  0  0  0  0  0
    5.7209   -2.8390    0.0000 C   0  0  0  0  0  0  0  0  0  0  0  0
    5.0139   -4.0711    0.0000 C   0  0  0  0  0  0  0  0  0  0  0  0
    5.7209   -3.6640    0.0000 C   0  0  0  0  0  0  0  0  0  0  0  0
    2.1427   -1.5963    0.0000 O   0  0  0  0  0  0  0  0  0  0  0  0
    0.7071   -4.9067    0.0000 O   0  0  0  0  0  0  0  0  0  0  0  0
    0.0000   -5.3138    0.0000 C   0  0  0  0  0  0  0  0  0  0  0  0
    2.1427   -4.9067    0.0000 O   0  0  0  0  0  0  0  0  0  0  0  0
    3.5783   -1.5963    0.0000 O   0  0  0  0  0  0  0  0  0  0  0  0
    3.5783   -4.9067    0.0000 O   0  0  0  0  0  0  0  0  0  0  0  0
    5.0139   -4.9067    0.0000 O   0  0  0  0  0  0  0  0  0  0  0  0
    6.5566   -2.8390    0.0000 C   0  0  0  0  0  0  0  0  0  0  0  0
    6.1281   -2.1105    0.0000 O   0  0  0  0  0  0  0  0  0  0  0  0
    6.9637   -3.5676    0.0000 O   0  0  0  0  0  0  0  0  0  0  0  0
    6.9744   -2.1320    0.0000 C   0  0  0  0  0  0  0  0  0  0  0  0
    7.7993   -2.1320    0.0000 O   0  0  0  0  0  0  0  0  0  0  0  0
    8.2171   -1.4249    0.0000 C   0  0  0  0  0  0  0  0  0  0  0  0
    9.0421   -1.4249    0.0000 C   0  0  0  0  0  0  0  0  0  0  0  0
    7.8101   -0.7071    0.0000 O   0  0  0  0  0  0  0  0  0  0  0  0
    9.4706   -0.7178    0.0000 C   0  0  0  0  0  0  0  0  0  0  0  0
   10.2956   -0.7285    0.0000 C   0  0  0  0  0  0  0  0  0  0  0  0
   10.7134    0.0000    0.0000 C   0  0  0  0  0  0  0  0  0  0  0  0
    5.7209   -5.3245    0.0000 C   0  0  0  0  0  0  0  0  0  0  0  0
    6.4494   -4.9067    0.0000 O   0  0  0  0  0  0  0  0  0  0  0  0
    5.7209   -6.1388    0.0000 C   0  0  0  0  0  0  0  0  0  0  0  0
    7.1565   -5.3245    0.0000 C   0  0  0  0  0  0  0  0  0  0  0  0
    6.4494   -6.5566    0.0000 C   0  0  0  0  0  0  0  0  0  0  0  0
    7.1565   -6.1495    0.0000 C   0  0  0  0  0  0  0  0  0  0  0  0
    7.8851   -6.5566    0.0000 O   0  0  0  0  0  0  0  0  0  0  0  0
    7.8851   -4.9067    0.0000 C   0  0  0  0  0  0  0  0  0  0  0  0
    6.4494   -7.3815    0.0000 N   0  0  0  0  0  0  0  0  0  0  0  0
    5.7316   -7.7993    0.0000 C   0  0  0  0  0  0  0  0  0  0  0  0
    5.0139   -7.3815    0.0000 O   0  0  0  0  0  0  0  0  0  0  0  0
    5.7316   -8.6350    0.0000 C   0  0  0  0  0  0  0  0  0  0  0  0
    4.9067   -8.6350    0.0000 F   0  0  0  0  0  0  0  0  0  0  0  0
    6.5673   -8.6350    0.0000 F   0  0  0  0  0  0  0  0  0  0  0  0
    5.7316   -9.4599    0.0000 F   0  0  0  0  0  0  0  0  0  0  0  0
  1  3  2  0
  1  7  1  0
  1  2  1  0
  2  4  2  0
  2  9  1  0
  3  5  1  0
  4  6  1  0
  4 20  1  0
  5  6  2  0
  7  8  1  0
  7 19  2  0
  8 11  2  0
  8 10  1  0
  9 10  1  0
  9 22  2  0
 10 13  2  0
 11 12  1  0
 11 23  1  0
 12 15  1  0
 12 14  2  0
 13 14  1  0
 13 24  1  0
 14 17  1  0
 15 16  1  0
 16 18  1  0
 16 26  1  0
 16 27  1  6
 17 18  1  0
 17 25  1  6
 20 21  1  0
 37 25  1  6
 26 28  2  0
 26 29  1  0
 29 30  1  0
 30 31  1  0
 31 32  1  0
 31 33  2  0
 32 34  1  0
 34 35  1  0
 35 36  1  0
 37 38  1  0
 37 39  1  0
 38 40  1  0
 39 41  1  0
 40 42  1  0
 40 44  1  1
 41 42  1  0
 41 45  1  1
 42 43  1  1
 45 46  1  0
 46 47  2  0
 46 48  1  0
 48 49  1  0
 48 50  1  0
 48 51  1  0
M  END
>  <Formula>  (464) 
C34H36F3NO13

>  <FW>  (464) 
723.6437

>  <DSSTox_CID>  (464) 
26497

>  <NR-AR>  (464) 
0

>  <NR-AR-LBD>  (464) 
1

>  <NR-PPAR-gamma>  (464) 
0

>  <NR-AhR>  (464) 
0

>  <SR-ATAD5>  (464) 
1

>  <SR-MMP>  (464) 
1

>  <SR-p53>  (464) 
1

$$$$
NCGC00159337-02
     RDKit          2D

 21 23  0  0  1  0  0  0  0  0999 V2000
    0.7161   -0.4181    0.0000 C   0  0  0  0  0  0  0  0  0  0  0  0
    0.7161   -1.2542    0.0000 C   0  0  0  0  0  0  0  0  0  0  0  0
    1.4321   -1.6483    0.0000 C   0  0  0  0  0  0  0  0  0  0  0  0
    1.4321    0.0000    0.0000 C   0  0  0  0  0  0  0  0  0  0  0  0
    2.1433   -0.4181    0.0000 C   0  0  0  0  0  0  0  0  0  0  0  0
    2.1433   -1.2542    0.0000 C   0  0  0  0  0  0  0  0  0  0  0  0
    2.8593   -1.6483    0.0000 C   0  0  0  0  0  0  0  0  0  0  0  0
    3.5753   -1.2542    0.0000 O   0  0  0  0  0  0  0  0  0  0  0  0
    3.5753   -0.4181    0.0000 C   0  0  0  0  0  0  0  0  0  0  0  0
    2.8593    0.0000    0.0000 N   0  0  0  0  0  0  0  0  0  0  0  0
    4.2914    0.0000    0.0000 O   0  0  0  0  0  0  0  0  0  0  0  0
    0.0000   -1.6483    0.0000 Cl  0  0  0  0  0  0  0  0  0  0  0  0
    3.2678   -2.3739    0.0000 C   0  0  0  0  0  0  0  0  0  0  0  0
    3.6859   -3.0900    0.0000 C   0  0  0  0  0  0  0  0  0  0  0  0
    4.0992   -3.8060    0.0000 C   0  0  0  0  0  0  0  0  0  0  0  0
    4.8056   -4.2097    0.0000 C   0  0  0  0  0  0  0  0  0  0  0  0
    4.0992   -4.6278    0.0000 C   0  0  0  0  0  0  0  0  0  0  0  0
    2.4412   -2.3739    0.0000 C   0  0  0  0  0  0  0  0  0  0  0  0
    3.1572   -2.7824    0.0000 F   0  0  0  0  0  0  0  0  0  0  0  0
    2.0376   -3.0900    0.0000 F   0  0  0  0  0  0  0  0  0  0  0  0
    1.7396   -1.9559    0.0000 F   0  0  0  0  0  0  0  0  0  0  0  0
  1  2  2  0
  1  4  1  0
  2 12  1  0
  2  3  1  0
  3  6  2  0
  4  5  2  0
  5 10  1  0
  5  6  1  0
  6  7  1  0
  7 13  1  1
  7 18  1  0
  7  8  1  0
  8  9  1  0
  9 10  1  0
  9 11  2  0
 13 14  3  0
 14 15  1  0
 15 16  1  0
 15 17  1  0
 16 17  1  0
 18 19  1  0
 18 20  1  0
 18 21  1  0
M  END
>  <Formula>  (465) 
C14H9ClF3NO2

>  <FW>  (465) 
315.6750

>  <DSSTox_CID>  (465) 
26029

>  <NR-AR>  (465) 
0

>  <NR-AR-LBD>  (465) 
0

>  <NR-ER-LBD>  (465) 
0

>  <NR-PPAR-gamma>  (465) 
0

>  <NR-AhR>  (465) 
0

>  <SR-ATAD5>  (465) 
0

>  <SR-MMP>  (465) 
1

$$$$
NCGC00181772-01
     RDKit          2D

 37 39  0  0  1  0  0  0  0  0999 V2000
    4.9776   -3.2909    0.0000 C   0  0  0  0  0  0  0  0  0  0  0  0
    5.6467   -3.7767    0.0000 C   0  0  0  0  0  0  0  0  0  0  0  0
    6.3068   -3.2726    0.0000 N   0  0  0  0  0  0  0  0  0  0  0  0
    6.0593   -2.5026    0.0000 C   0  0  0  0  0  0  0  0  0  0  0  0
    5.2342   -2.5026    0.0000 C   0  0  0  0  0  0  0  0  0  0  0  0
    0.7058   -0.8250    0.0000 N   0  0  0  0  0  0  0  0  0  0  0  0
    1.4209   -1.2375    0.0000 C   0  0  0  0  0  0  0  0  0  0  0  0
    0.7058    0.0000    0.0000 O   0  0  0  0  0  0  0  0  0  0  0  0
    0.0000   -1.2375    0.0000 O   0  0  0  0  0  0  0  0  0  0  0  0
    1.4209   -2.0625    0.0000 C   0  0  0  0  0  0  0  0  0  0  0  0
    2.1267   -2.4659    0.0000 C   0  0  0  0  0  0  0  0  0  0  0  0
    2.8509   -2.0625    0.0000 C   0  0  0  0  0  0  0  0  0  0  0  0
    2.8509   -1.2375    0.0000 C   0  0  0  0  0  0  0  0  0  0  0  0
    2.1267   -0.8250    0.0000 C   0  0  0  0  0  0  0  0  0  0  0  0
    2.1267   -3.2909    0.0000 C   0  0  0  0  0  0  0  0  0  0  0  0
    1.4209   -3.7125    0.0000 C   0  0  0  0  0  0  0  0  0  0  0  0
    1.4209   -4.5375    0.0000 C   0  0  0  0  0  0  0  0  0  0  0  0
    2.1267   -4.9317    0.0000 N   0  0  0  0  0  0  0  0  0  0  0  0
    2.8509   -4.5375    0.0000 C   0  0  0  0  0  0  0  0  0  0  0  0
    2.8509   -3.7125    0.0000 C   0  0  0  0  0  0  0  0  0  0  0  0
    0.7058   -4.9317    0.0000 C   0  0  0  0  0  0  0  0  0  0  0  0
    3.5567   -4.9317    0.0000 C   0  0  0  0  0  0  0  0  0  0  0  0
    0.7058   -3.2909    0.0000 C   0  0  0  0  0  0  0  0  0  0  0  0
    0.7058   -2.4659    0.0000 O   0  0  0  0  0  0  0  0  0  0  0  0
    0.0000   -3.7125    0.0000 O   0  0  0  0  0  0  0  0  0  0  0  0
    3.5567   -3.2909    0.0000 C   0  0  0  0  0  0  0  0  0  0  0  0
    3.5567   -2.4659    0.0000 O   0  0  0  0  0  0  0  0  0  0  0  0
    4.2717   -3.7125    0.0000 O   0  0  0  0  0  0  0  0  0  0  0  0
    7.0218   -3.7400    0.0000 C   0  0  0  0  0  0  0  0  0  0  0  0
    7.7459   -3.3184    0.0000 C   0  0  0  0  0  0  0  0  0  0  0  0
    8.4518   -3.7400    0.0000 C   0  0  0  0  0  0  0  0  0  0  0  0
    9.1668   -3.3184    0.0000 C   0  0  0  0  0  0  0  0  0  0  0  0
    9.1668   -2.5026    0.0000 C   0  0  0  0  0  0  0  0  0  0  0  0
    8.4518   -2.0992    0.0000 C   0  0  0  0  0  0  0  0  0  0  0  0
    7.7459   -2.5026    0.0000 C   0  0  0  0  0  0  0  0  0  0  0  0
    0.0000   -2.0625    0.0000 C   0  0  0  0  0  0  0  0  0  0  0  0
    5.2893   -1.1184    0.0000 Cl  0  0  0  0  0  0  0  0  0  0  0  0
  1  5  1  0
  1  2  1  0
  1 28  1  1
  2  3  1  0
  3 29  1  0
  3  4  1  0
  4  5  1  0
  6  7  1  0
  6  8  2  0
  6  9  1  0
  7 14  2  0
  7 10  1  0
 10 11  2  0
 11 12  1  0
 15 11  1  6
 12 13  2  0
 13 14  1  0
 15 20  1  0
 15 16  1  0
 16 17  2  0
 16 23  1  0
 17 18  1  0
 17 21  1  0
 18 19  1  0
 19 20  2  0
 19 22  1  0
 20 26  1  0
 23 24  1  0
 23 25  2  0
 24 36  1  0
 26 27  2  0
 26 28  1  0
 29 30  1  0
 30 31  2  0
 30 35  1  0
 31 32  1  0
 32 33  2  0
 33 34  1  0
 34 35  2  0
M  CHG  2   6   1   9  -1
M  END
>  <Formula>  (466) 
C27H30ClN3O6

>  <FW>  (466) 
527.9966 (491.5357+36.4609)

>  <DSSTox_CID>  (466) 
28580

>  <NR-AR>  (466) 
0

>  <NR-AR-LBD>  (466) 
0

>  <NR-ER>  (466) 
0

>  <NR-ER-LBD>  (466) 
0

>  <NR-AhR>  (466) 
0

>  <SR-ATAD5>  (466) 
0

>  <SR-MMP>  (466) 
1

$$$$
NCGC00163470-03
     RDKit          2D

 57 60  0  0  1  0  0  0  0  0999 V2000
    2.8258   -0.4022    0.0000 C   0  0  0  0  0  0  0  0  0  0  0  0
    2.8258   -1.2376    0.0000 C   0  0  0  0  0  0  0  0  0  0  0  0
    2.1245    0.0000    0.0000 C   0  0  0  0  0  0  0  0  0  0  0  0
    2.1245   -1.6398    0.0000 C   0  0  0  0  0  0  0  0  0  0  0  0
    1.4129   -0.4022    0.0000 C   0  0  0  0  0  0  0  0  0  0  0  0
    1.4129   -1.2376    0.0000 C   0  0  0  0  0  0  0  0  0  0  0  0
    0.7013    0.0000    0.0000 O   0  0  0  0  0  0  0  0  0  0  0  0
    0.7013   -1.6398    0.0000 O   0  0  0  0  0  0  0  0  0  0  0  0
    0.0000   -1.2273    0.0000 C   0  0  0  0  0  0  0  0  0  0  0  0
    3.5478   -1.6398    0.0000 C   0  0  0  0  0  0  0  0  0  0  0  0
    3.5478   -2.4648    0.0000 C   0  0  0  0  0  0  0  0  0  0  0  0
    4.2387   -2.8877    0.0000 C   0  0  0  0  0  0  0  0  0  0  0  0
    2.8258   -2.8877    0.0000 C   0  0  0  0  0  0  0  0  0  0  0  0
    4.2387   -3.7334    0.0000 O   0  0  0  0  0  0  0  0  0  0  0  0
    4.9813   -2.4648    0.0000 C   0  0  0  0  0  0  0  0  0  0  0  0
    5.6723   -2.8877    0.0000 C   0  0  0  0  0  0  0  0  0  0  0  0
    4.9813   -1.6398    0.0000 C   0  0  0  0  0  0  0  0  0  0  0  0
    3.8365   -4.4450    0.0000 C   0  0  0  0  0  0  0  0  0  0  0  0
    4.2387   -5.1669    0.0000 O   0  0  0  0  0  0  0  0  0  0  0  0
    3.0218   -4.4450    0.0000 C   0  0  0  0  0  0  0  0  0  0  0  0
    2.6092   -5.1669    0.0000 N   0  0  0  0  0  0  0  0  0  0  0  0
    2.6092   -3.7334    0.0000 C   0  0  0  0  0  0  0  0  0  0  0  0
    1.7945   -5.1669    0.0000 C   0  0  0  0  0  0  0  0  0  0  0  0
    1.7945   -3.7334    0.0000 C   0  0  0  0  0  0  0  0  0  0  0  0
    1.3923   -4.4450    0.0000 C   0  0  0  0  0  0  0  0  0  0  0  0
    3.0218   -5.8682    0.0000 C   0  0  0  0  0  0  0  0  0  0  0  0
    2.0524   -6.4354    0.0000 C   0  0  0  0  0  0  0  0  0  0  0  0
    3.8365   -5.8682    0.0000 O   0  0  0  0  0  0  0  0  0  0  0  0
    1.2376   -6.4354    0.0000 O   0  0  0  0  0  0  0  0  0  0  0  0
    2.0524   -7.4358    0.0000 C   0  0  0  0  0  0  0  0  0  0  0  0
    2.7846   -7.8483    0.0000 O   0  0  0  0  0  0  0  0  0  0  0  0
    1.3717   -7.8483    0.0000 C   0  0  0  0  0  0  0  0  0  0  0  0
    2.7846   -8.6734    0.0000 C   0  0  0  0  0  0  0  0  0  0  0  0
    1.3717   -8.6734    0.0000 C   0  0  0  0  0  0  0  0  0  0  0  0
    2.0524   -9.0859    0.0000 C   0  0  0  0  0  0  0  0  0  0  0  0
    2.0524   -9.9213    0.0000 O   0  0  0  0  0  0  0  0  0  0  0  0
    0.6498   -7.4358    0.0000 C   0  0  0  0  0  0  0  0  0  0  0  0
    3.5787   -9.0344    0.0000 C   0  0  0  0  0  0  0  0  0  0  0  0
    3.5787   -9.8697    0.0000 O   0  0  0  0  0  0  0  0  0  0  0  0
    4.4037   -8.5290    0.0000 C   0  0  0  0  0  0  0  0  0  0  0  0
    4.2903  -10.2513    0.0000 C   0  0  0  0  0  0  0  0  0  0  0  0
    4.4037   -7.7143    0.0000 C   0  0  0  0  0  0  0  0  0  0  0  0
    3.7024   -7.3120    0.0000 C   0  0  0  0  0  0  0  0  0  0  0  0
    5.1153   -7.3120    0.0000 C   0  0  0  0  0  0  0  0  0  0  0  0
    5.5898   -6.5489    0.0000 C   0  0  0  0  0  0  0  0  0  0  0  0
    1.3511  -10.3132    0.0000 C   0  0  0  0  0  0  0  0  0  0  0  0
    5.6723   -3.6921    0.0000 C   0  0  0  0  0  0  0  0  0  0  0  0
    6.3736   -2.4648    0.0000 O   0  0  0  0  0  0  0  0  0  0  0  0
    6.3736   -4.1047    0.0000 C   0  0  0  0  0  0  0  0  0  0  0  0
    6.3736   -4.9194    0.0000 C   0  0  0  0  0  0  0  0  0  0  0  0
    7.0852   -3.6921    0.0000 O   0  0  0  0  0  0  0  0  0  0  0  0
    2.7123   -6.9717    0.0000 O   0  0  0  0  0  0  0  0  0  0  0  0
    5.5898   -5.5382    0.0000 C   0  0  0  0  0  0  0  0  0  0  0  0
    7.2399   -5.4866    0.0000 C   0  0  0  0  0  0  0  0  0  0  0  0
    7.9515   -5.0638    0.0000 C   0  0  0  0  0  0  0  0  0  0  0  0
    7.9515   -4.2491    0.0000 C   0  0  0  0  0  0  0  0  0  0  0  0
    6.4458   -7.0336    0.0000 C   0  0  0  0  0  0  0  0  0  0  0  0
  2  1  1  1
  1  3  1  0
  2  4  1  0
  2 10  1  0
  3  5  1  0
  4  6  1  0
  5  6  1  0
  5  7  1  6
  6  8  1  1
  8  9  1  0
 10 11  2  0
 11 12  1  0
 11 13  1  0
 12 14  1  6
 12 15  1  0
 14 18  1  0
 15 16  1  0
 15 17  1  6
 16 47  1  0
 16 48  1  1
 18 19  2  0
 20 18  1  0
 20 21  1  0
 20 22  1  1
 21 23  1  0
 21 26  1  0
 22 24  1  0
 23 25  1  0
 24 25  1  0
 26 27  1  0
 26 28  2  0
 27 29  2  0
 27 30  1  0
 30 31  1  0
 30 32  1  0
 30 52  1  1
 33 31  1  6
 32 34  1  0
 32 37  1  1
 33 35  1  0
 33 38  1  0
 34 35  1  0
 35 36  1  1
 36 46  1  0
 38 39  1  6
 38 40  1  0
 39 41  1  0
 40 42  1  0
 42 43  1  1
 42 44  1  0
 44 45  1  0
 45 53  2  0
 45 57  1  0
 47 49  1  0
 49 50  1  0
 49 51  2  0
 50 53  1  0
 50 54  1  6
 54 55  1  0
 55 56  2  0
M  END
>  <Formula>  (467) 
C44H69NO12

>  <FW>  (467) 
804.0182

>  <DSSTox_CID>  (467) 
26354

>  <NR-AR>  (467) 
0

>  <NR-AR-LBD>  (467) 
0

>  <NR-ER>  (467) 
0

>  <NR-ER-LBD>  (467) 
0

>  <NR-AhR>  (467) 
0

>  <SR-MMP>  (467) 
1

>  <SR-p53>  (467) 
0

$$$$
NCGC00182055-02
     RDKit          2D

 39 42  0  0  0  0  0  0  0  0999 V2000
    2.9333   -2.1163    0.0000 N   0  0  0  0  0  0  0  0  0  0  0  0
    3.4156   -1.4469    0.0000 C   0  0  0  0  0  0  0  0  0  0  0  0
    4.2425   -1.4469    0.0000 C   0  0  0  0  0  0  0  0  0  0  0  0
    4.6559   -2.1557    0.0000 C   0  0  0  0  0  0  0  0  0  0  0  0
    5.4827   -2.1557    0.0000 C   0  0  0  0  0  0  0  0  0  0  0  0
    5.8961   -1.4469    0.0000 C   0  0  0  0  0  0  0  0  0  0  0  0
    6.7229   -1.4371    0.0000 O   0  0  0  0  0  0  0  0  0  0  0  0
    5.4827   -0.7383    0.0000 C   0  0  0  0  0  0  0  0  0  0  0  0
    4.6559   -0.7383    0.0000 C   0  0  0  0  0  0  0  0  0  0  0  0
    2.9333   -0.7874    0.0000 C   0  0  0  0  0  0  0  0  0  0  0  0
    3.1892    0.0000    0.0000 C   0  0  0  0  0  0  0  0  0  0  0  0
    2.1458   -1.0335    0.0000 C   0  0  0  0  0  0  0  0  0  0  0  0
    1.4273   -0.6300    0.0000 C   0  0  0  0  0  0  0  0  0  0  0  0
    0.7185   -1.0335    0.0000 C   0  0  0  0  0  0  0  0  0  0  0  0
    0.0000   -0.6300    0.0000 O   0  0  0  0  0  0  0  0  0  0  0  0
    0.7185   -1.8604    0.0000 C   0  0  0  0  0  0  0  0  0  0  0  0
    1.4273   -2.2738    0.0000 C   0  0  0  0  0  0  0  0  0  0  0  0
    2.1458   -1.8604    0.0000 C   0  0  0  0  0  0  0  0  0  0  0  0
    3.1892   -2.9037    0.0000 C   0  0  0  0  0  0  0  0  0  0  0  0
    3.9964   -3.0711    0.0000 C   0  0  0  0  0  0  0  0  0  0  0  0
    4.2523   -3.8586    0.0000 C   0  0  0  0  0  0  0  0  0  0  0  0
    5.0594   -4.0259    0.0000 C   0  0  0  0  0  0  0  0  0  0  0  0
    5.6106   -3.4058    0.0000 C   0  0  0  0  0  0  0  0  0  0  0  0
    6.4178   -3.5928    0.0000 O   0  0  0  0  0  0  0  0  0  0  0  0
    6.9690   -2.9726    0.0000 C   0  0  0  0  0  0  0  0  0  0  0  0
    7.7762   -3.1400    0.0000 C   0  0  0  0  0  0  0  0  0  0  0  0
    8.3274   -2.5199    0.0000 N   0  0  0  0  0  0  0  0  0  0  0  0
    9.1148   -2.7659    0.0000 C   0  0  0  0  0  0  0  0  0  0  0  0
    9.7941   -2.2836    0.0000 C   0  0  0  0  0  0  0  0  0  0  0  0
    9.8433   -1.4568    0.0000 C   0  0  0  0  0  0  0  0  0  0  0  0
    9.2231   -0.9154    0.0000 C   0  0  0  0  0  0  0  0  0  0  0  0
    8.4258   -1.0434    0.0000 C   0  0  0  0  0  0  0  0  0  0  0  0
    8.0124   -1.7718    0.0000 C   0  0  0  0  0  0  0  0  0  0  0  0
    5.3548   -2.6281    0.0000 C   0  0  0  0  0  0  0  0  0  0  0  0
    4.5476   -2.4510    0.0000 C   0  0  0  0  0  0  0  0  0  0  0  0
    1.3780   -3.0908    0.0000 C   0  0  0  0  0  0  0  0  0  0  0  0
    0.6694   -2.6774    0.0000 C   0  0  0  0  0  0  0  0  0  0  0  0
    1.3780   -3.9176    0.0000 O   0  0  0  0  0  0  0  0  0  0  0  0
    2.0966   -2.6774    0.0000 O   0  0  0  0  0  0  0  0  0  0  0  0
  1  2  1  0
  1 18  1  0
  1 19  1  0
  2  3  1  0
  2 10  2  0
  3  4  2  0
  3  9  1  0
  4  5  1  0
  5  6  2  0
  6  7  1  0
  6  8  1  0
  8  9  2  0
 10 11  1  0
 10 12  1  0
 12 13  2  0
 12 18  1  0
 13 14  1  0
 14 15  1  0
 14 16  2  0
 16 17  1  0
 17 18  2  0
 19 20  1  0
 20 21  2  0
 20 35  1  0
 21 22  1  0
 22 23  2  0
 23 24  1  0
 23 34  1  0
 24 25  1  0
 25 26  1  0
 26 27  1  0
 27 28  1  0
 27 33  1  0
 28 29  1  0
 29 30  1  0
 30 31  1  0
 31 32  1  0
 32 33  1  0
 34 35  2  0
 36 37  1  0
 36 38  2  0
 36 39  1  0
M  END
>  <Formula>  (468) 
C32H38N2O5

>  <FW>  (468) 
530.6545 (470.6026+60.0520)

>  <DSSTox_CID>  (468) 
28583

>  <NR-Aromatase>  (468) 
1

>  <NR-AR>  (468) 
0

>  <NR-AR-LBD>  (468) 
0

>  <NR-PPAR-gamma>  (468) 
0

>  <NR-AhR>  (468) 
0

>  <SR-ATAD5>  (468) 
0

>  <SR-MMP>  (468) 
1

>  <SR-p53>  (468) 
0

$$$$
NCGC00181306-02
     RDKit          2D

 58 63  0  0  1  0  0  0  0  0999 V2000
    8.8793   -2.5726    0.0000 C   0  0  0  0  0  0  0  0  0  0  0  0
    9.6174   -3.8209    0.0000 C   0  0  0  0  0  0  0  0  0  0  0  0
    6.9905   -3.5930    0.0000 C   0  0  0  0  0  0  0  0  0  0  0  0
    8.8793   -3.3976    0.0000 C   0  0  0  0  0  0  0  0  0  0  0  0
    6.9905   -2.1601    0.0000 C   0  0  0  0  0  0  0  0  0  0  0  0
    7.4139   -2.8874    0.0000 C   0  0  0  0  0  0  0  0  0  0  0  0
    8.4233   -1.7802    0.0000 C   0  0  0  0  0  0  0  0  0  0  0  0
    8.0217   -4.2660    0.0000 C   0  0  0  0  0  0  0  0  0  0  0  0
    7.5984   -1.7802    0.0000 C   0  0  0  0  0  0  0  0  0  0  0  0
    6.1547   -2.1601    0.0000 C   0  0  0  0  0  0  0  0  0  0  0  0
    6.1656   -3.5930    0.0000 C   0  0  0  0  0  0  0  0  0  0  0  0
    5.7314   -2.8874    0.0000 C   0  0  0  0  0  0  0  0  0  0  0  0
    4.1900   -2.4749    0.0000 C   0  0  0  0  0  0  0  0  0  0  0  0
    9.6174   -2.1492    0.0000 C   0  0  0  0  0  0  0  0  0  0  0  0
    3.4735   -2.8874    0.0000 C   0  0  0  0  0  0  0  0  0  0  0  0
   10.3339   -3.3976    0.0000 C   0  0  0  0  0  0  0  0  0  0  0  0
    2.0299   -2.9091    0.0000 N   0  0  0  0  0  0  0  0  0  0  0  0
    8.0217   -5.0909    0.0000 O   0  0  0  0  0  0  0  0  0  0  0  0
    2.7355   -2.4749    0.0000 C   0  0  0  0  0  0  0  0  0  0  0  0
    2.0299   -3.7232    0.0000 C   0  0  0  0  0  0  0  0  0  0  0  0
    7.3922   -5.6011    0.0000 C   0  0  0  0  0  0  0  0  0  0  0  0
    4.8955   -2.8874    0.0000 O   0  0  0  0  0  0  0  0  0  0  0  0
   10.0733   -4.4831    0.0000 C   0  0  0  0  0  0  0  0  0  0  0  0
   10.3339   -2.5726    0.0000 C   0  0  0  0  0  0  0  0  0  0  0  0
    9.4329   -4.3962    0.0000 O   0  0  0  0  0  0  0  0  0  0  0  0
   10.8549   -3.9621    0.0000 O   0  0  0  0  0  0  0  0  0  0  0  0
    7.1533   -1.0638    0.0000 O   0  0  0  0  0  0  0  0  0  0  0  0
    8.9878   -4.8521    0.0000 C   0  0  0  0  0  0  0  0  0  0  0  0
    8.8467   -1.1615    0.0000 O   0  0  0  0  0  0  0  0  0  0  0  0
    4.1900   -1.6391    0.0000 O   0  0  0  0  0  0  0  0  0  0  0  0
    2.6920   -4.1791    0.0000 O   0  0  0  0  0  0  0  0  0  0  0  0
    6.6540   -5.2103    0.0000 O   0  0  0  0  0  0  0  0  0  0  0  0
    6.6323   -4.2117    0.0000 O   0  0  0  0  0  0  0  0  0  0  0  0
    1.4112   -4.1357    0.0000 O   0  0  0  0  0  0  0  0  0  0  0  0
    7.3922   -6.3501    0.0000 C   0  0  0  0  0  0  0  0  0  0  0  0
    2.7355   -1.6391    0.0000 C   0  0  0  0  0  0  0  0  0  0  0  0
    8.4668   -4.5808    0.0000 O   0  0  0  0  0  0  0  0  0  0  0  0
    9.0530   -1.6065    0.0000 C   0  0  0  0  0  0  0  0  0  0  0  0
    3.4735   -3.7232    0.0000 O   0  0  0  0  0  0  0  0  0  0  0  0
   10.0407   -1.3677    0.0000 O   0  0  0  0  0  0  0  0  0  0  0  0
    7.7612   -2.3338    0.0000 C   0  0  0  0  0  0  0  0  0  0  0  0
    7.7178   -3.3433    0.0000 C   0  0  0  0  0  0  0  0  0  0  0  0
    5.7314   -1.4437    0.0000 C   0  0  0  0  0  0  0  0  0  0  0  0
    8.9878   -5.4383    0.0000 C   0  0  0  0  0  0  0  0  0  0  0  0
    0.7164   -3.7232    0.0000 C   0  0  0  0  0  0  0  0  0  0  0  0
    6.6866   -6.7626    0.0000 C   0  0  0  0  0  0  0  0  0  0  0  0
    8.0869   -6.7626    0.0000 C   0  0  0  0  0  0  0  0  0  0  0  0
    3.4735   -1.2266    0.0000 C   0  0  0  0  0  0  0  0  0  0  0  0
    2.0299   -1.2266    0.0000 C   0  0  0  0  0  0  0  0  0  0  0  0
    3.4735   -0.4016    0.0000 C   0  0  0  0  0  0  0  0  0  0  0  0
    6.6866   -7.5767    0.0000 C   0  0  0  0  0  0  0  0  0  0  0  0
    2.0299   -0.4016    0.0000 C   0  0  0  0  0  0  0  0  0  0  0  0
    8.0869   -7.5767    0.0000 C   0  0  0  0  0  0  0  0  0  0  0  0
    7.3922   -7.9892    0.0000 C   0  0  0  0  0  0  0  0  0  0  0  0
    2.7355    0.0000    0.0000 C   0  0  0  0  0  0  0  0  0  0  0  0
    0.0000   -4.1249    0.0000 C   0  0  0  0  0  0  0  0  0  0  0  0
    0.6947   -2.8983    0.0000 C   0  0  0  0  0  0  0  0  0  0  0  0
    0.7056   -4.5482    0.0000 C   0  0  0  0  0  0  0  0  0  0  0  0
  1  4  1  0
  1  7  1  0
  1 14  1  0
  1 38  1  1
  2  4  1  0
  2 23  1  0
  2 25  1  6
  2 16  1  0
  3  8  1  0
  3 11  1  0
  3 33  1  1
  3  6  1  0
  4  8  1  1
  5  9  1  0
  5  6  1  0
  5 10  2  0
  6 41  1  0
  6 42  1  0
  7  9  1  0
  7 29  2  0
  8 18  1  6
  9 27  1  1
 10 12  1  0
 10 43  1  0
 11 12  1  0
 12 22  1  6
 13 22  1  0
 13 15  1  0
 13 30  2  0
 14 24  1  0
 14 40  1  1
 15 19  1  0
 15 39  1  6
 16 24  1  1
 16 26  1  0
 19 17  1  1
 17 20  1  0
 18 21  1  0
 19 36  1  0
 20 31  2  0
 20 34  1  0
 21 32  2  0
 21 35  1  0
 23 26  1  0
 25 28  1  0
 28 37  2  0
 28 44  1  0
 34 45  1  0
 35 46  2  0
 35 47  1  0
 36 48  2  0
 36 49  1  0
 45 56  1  0
 45 57  1  0
 45 58  1  0
 46 51  1  0
 47 53  2  0
 48 50  1  0
 49 52  2  0
 50 55  2  0
 51 54  2  0
 52 55  1  0
 53 54  1  0
M  END
>  <Formula>  (469) 
C43H53NO14

>  <FW>  (469) 
807.8792

>  <DSSTox_CID>  (469) 
20464

>  <NR-AR>  (469) 
0

>  <NR-ER>  (469) 
0

>  <NR-ER-LBD>  (469) 
0

>  <NR-AhR>  (469) 
0

>  <SR-ATAD5>  (469) 
0

>  <SR-MMP>  (469) 
1

>  <SR-p53>  (469) 
1

$$$$
NCGC00259944-01
     RDKit          2D

 44 49  0  0  1  0  0  0  0  0999 V2000
    3.3797   -1.2931    0.0000 C   0  0  0  0  0  0  0  0  0  0  0  0
    2.7430   -1.6360    0.0000 N   0  0  0  0  0  0  0  0  0  0  0  0
    3.3797   -0.4507    0.0000 C   0  0  0  0  0  0  0  0  0  0  0  0
    4.8002   -3.7618    0.0000 C   0  0  0  0  0  0  0  0  0  0  0  0
    4.8002   -2.9487    0.0000 C   0  0  0  0  0  0  0  0  0  0  0  0
    4.0949   -1.7046    0.0000 C   0  0  0  0  0  0  0  0  0  0  0  0
    4.8002   -1.2931    0.0000 N   0  0  0  0  0  0  0  0  0  0  0  0
    2.0866   -1.2049    0.0000 C   0  0  0  0  0  0  0  0  0  0  0  0
    2.0866   -0.4507    0.0000 C   0  0  0  0  0  0  0  0  0  0  0  0
    5.5056   -2.5274    0.0000 C   0  0  0  0  0  0  0  0  0  0  0  0
    6.2304   -3.7618    0.0000 C   0  0  0  0  0  0  0  0  0  0  0  0
    7.6509   -3.7520    0.0000 C   0  0  0  0  0  0  0  0  0  0  0  0
    4.0949   -2.5274    0.0000 C   0  0  0  0  0  0  0  0  0  0  0  0
    5.5056   -4.1732    0.0000 C   0  0  0  0  0  0  0  0  0  0  0  0
    7.6509   -2.9291    0.0000 C   0  0  0  0  0  0  0  0  0  0  0  0
    7.6509   -1.2736    0.0000 C   0  0  0  0  0  0  0  0  0  0  0  0
    4.0949   -4.1928    0.0000 C   0  0  0  0  0  0  0  0  0  0  0  0
    6.9358   -4.1732    0.0000 O   0  0  0  0  0  0  0  0  0  0  0  0
    5.5056   -1.7046    0.0000 C   0  0  0  0  0  0  0  0  0  0  0  0
    6.9260   -1.6850    0.0000 C   0  0  0  0  0  0  0  0  0  0  0  0
    8.3661   -1.6850    0.0000 C   0  0  0  0  0  0  0  0  0  0  0  0
    6.2304   -2.9487    0.0000 C   0  0  0  0  0  0  0  0  0  0  0  0
    4.0949   -0.0392    0.0000 C   0  0  0  0  0  0  0  0  0  0  0  0
    6.9260   -2.5079    0.0000 C   0  0  0  0  0  0  0  0  0  0  0  0
    8.3661   -2.5079    0.0000 C   0  0  0  0  0  0  0  0  0  0  0  0
    1.3715   -1.6654    0.0000 C   0  0  0  0  0  0  0  0  0  0  0  0
    1.3715    0.0000    0.0000 C   0  0  0  0  0  0  0  0  0  0  0  0
    4.8002   -0.4507    0.0000 C   0  0  0  0  0  0  0  0  0  0  0  0
    8.3661   -4.1635    0.0000 O   0  0  0  0  0  0  0  0  0  0  0  0
    3.3797   -3.7814    0.0000 O   0  0  0  0  0  0  0  0  0  0  0  0
    0.6759   -1.2539    0.0000 C   0  0  0  0  0  0  0  0  0  0  0  0
    7.6509   -0.4408    0.0000 O   0  0  0  0  0  0  0  0  0  0  0  0
    0.6759   -0.4114    0.0000 C   0  0  0  0  0  0  0  0  0  0  0  0
    5.5056   -5.0059    0.0000 O   0  0  0  0  0  0  0  0  0  0  0  0
    4.0949   -5.0059    0.0000 O   0  0  0  0  0  0  0  0  0  0  0  0
    6.2109   -1.2736    0.0000 O   0  0  0  0  0  0  0  0  0  0  0  0
    9.0812   -1.2736    0.0000 O   0  0  0  0  0  0  0  0  0  0  0  0
    0.0000   -1.7241    0.0000 O   0  0  0  0  0  0  0  0  0  0  0  0
    8.3661   -0.0196    0.0000 C   0  0  0  0  0  0  0  0  0  0  0  0
    6.2304   -5.4272    0.0000 C   0  0  0  0  0  0  0  0  0  0  0  0
    6.2109   -0.4408    0.0000 C   0  0  0  0  0  0  0  0  0  0  0  0
    9.7963   -1.6850    0.0000 C   0  0  0  0  0  0  0  0  0  0  0  0
    4.8002   -5.4272    0.0000 C   0  0  0  0  0  0  0  0  0  0  0  0
    0.0000   -2.5667    0.0000 C   0  0  0  0  0  0  0  0  0  0  0  0
  1  2  1  0
  1  3  2  0
  1  6  1  0
  2  8  1  0
  3  9  1  0
  3 23  1  0
  4  5  1  0
  4 14  1  0
  4 17  1  1
  5 13  1  1
  5 10  1  0
  6  7  1  0
  6 13  1  6
  7 19  1  0
  7 28  1  0
  8 26  2  0
  8  9  1  0
  9 27  2  0
 10 22  1  1
 10 19  1  0
 11 22  1  0
 11 18  1  1
 11 14  1  0
 12 18  1  0
 12 15  1  0
 12 29  2  0
 14 34  1  6
 15 24  1  0
 15 25  2  0
 16 21  2  0
 16 32  1  0
 16 20  1  0
 17 30  2  0
 17 35  1  0
 20 24  2  0
 20 36  1  0
 21 25  1  0
 21 37  1  0
 23 28  1  0
 26 31  1  0
 27 33  1  0
 31 38  1  0
 31 33  2  0
 32 39  1  0
 34 40  1  0
 35 43  1  0
 36 41  1  0
 37 42  1  0
 38 44  1  0
M  END
>  <Formula>  (470) 
C33H40N2O9

>  <FW>  (470) 
608.6787

>  <DSSTox_CID>  (470) 
1237

>  <NR-AR>  (470) 
0

>  <NR-AR-LBD>  (470) 
0

>  <NR-AhR>  (470) 
1

>  <SR-ATAD5>  (470) 
0

>  <SR-HSE>  (470) 
0

>  <SR-MMP>  (470) 
1

>  <SR-p53>  (470) 
0

$$$$
NCGC00256408-01
     RDKit          2D

 27 29  0  0  1  0  0  0  0  0999 V2000
    3.5690   -4.0334    0.0000 C   0  0  0  0  0  0  0  0  0  0  0  0
    3.5690   -4.8707    0.0000 C   0  0  0  0  0  0  0  0  0  0  0  0
    2.8601   -3.6240    0.0000 N   0  0  0  0  0  0  0  0  0  0  0  0
    4.2901   -3.6240    0.0000 N   0  0  0  0  0  0  0  0  0  0  0  0
    2.8601   -5.2618    0.0000 N   0  0  0  0  0  0  0  0  0  0  0  0
    5.0052   -4.8707    0.0000 N   0  0  0  0  0  0  0  0  0  0  0  0
    4.2901   -5.2618    0.0000 C   0  0  0  0  0  0  0  0  0  0  0  0
    5.0052   -4.0334    0.0000 C   0  0  0  0  0  0  0  0  0  0  0  0
    2.1512   -4.0334    0.0000 C   0  0  0  0  0  0  0  0  0  0  0  0
    2.1512   -4.8707    0.0000 C   0  0  0  0  0  0  0  0  0  0  0  0
    1.4300   -3.6240    0.0000 C   0  0  0  0  0  0  0  0  0  0  0  0
    1.4300   -5.2618    0.0000 C   0  0  0  0  0  0  0  0  0  0  0  0
    0.7211   -4.0334    0.0000 C   0  0  0  0  0  0  0  0  0  0  0  0
    0.7211   -4.8707    0.0000 C   0  0  0  0  0  0  0  0  0  0  0  0
    4.2901   -6.1113    0.0000 O   0  0  0  0  0  0  0  0  0  0  0  0
    5.7263   -3.6240    0.0000 O   0  0  0  0  0  0  0  0  0  0  0  0
    0.0000   -3.6240    0.0000 C   0  0  0  0  0  0  0  0  0  0  0  0
    0.0000   -5.2863    0.0000 C   0  0  0  0  0  0  0  0  0  0  0  0
    4.2901   -0.3239    0.0000 C   0  0  0  0  0  0  0  0  0  0  0  0
    4.2901   -1.1489    0.0000 C   0  0  0  0  0  0  0  0  0  0  0  0
    3.5690   -1.5584    0.0000 C   0  0  0  0  0  0  0  0  0  0  0  0
    3.5690   -2.3834    0.0000 C   0  0  0  0  0  0  0  0  0  0  0  0
    2.8601   -2.7990    0.0000 C   0  0  0  0  0  0  0  0  0  0  0  0
    4.8463    0.0000    0.0000 O   0  0  0  0  0  0  0  0  0  0  0  0
    4.9929   -1.5584    0.0000 O   0  0  0  0  0  0  0  0  0  0  0  0
    2.8601   -1.1489    0.0000 O   0  0  0  0  0  0  0  0  0  0  0  0
    4.2901   -2.7990    0.0000 O   0  0  0  0  0  0  0  0  0  0  0  0
  1  2  1  0
  1  3  1  0
  1  4  2  0
  2  5  2  0
  2  7  1  0
  3  9  1  0
  3 23  1  0
  4  8  1  0
  5 10  1  0
  6  8  1  0
  6  7  1  0
  7 15  2  0
  8 16  2  0
  9 10  2  0
  9 11  1  0
 10 12  1  0
 11 13  2  0
 12 14  2  0
 13 14  1  0
 13 17  1  0
 14 18  1  0
 19 20  1  0
 19 24  1  0
 20 21  1  0
 20 25  1  1
 21 22  1  0
 21 26  1  6
 22 23  1  0
 22 27  1  1
M  END
>  <Formula>  (471) 
C17H20N4O6

>  <FW>  (471) 
376.3639

>  <DSSTox_CID>  (471) 
1777

>  <NR-Aromatase>  (471) 
0

>  <NR-AR>  (471) 
0

>  <NR-ER>  (471) 
0

>  <NR-ER-LBD>  (471) 
0

>  <NR-AhR>  (471) 
1

>  <SR-ATAD5>  (471) 
0

>  <SR-HSE>  (471) 
0

>  <SR-MMP>  (471) 
1

>  <SR-p53>  (471) 
0

$$$$
NCGC00254130-01
     RDKit          2D

 43 47  0  0  0  0  0  0  0  0999 V2000
    0.0000   -3.2528    0.0000 C   0  0  0  0  0  0  0  0  0  0  0  0
    0.4958   -2.5999    0.0000 C   0  0  0  0  0  0  0  0  0  0  0  0
    1.3060   -2.6724    0.0000 O   0  0  0  0  0  0  0  0  0  0  0  0
    1.8018   -2.0074    0.0000 C   0  0  0  0  0  0  0  0  0  0  0  0
    1.4752   -1.2455    0.0000 C   0  0  0  0  0  0  0  0  0  0  0  0
    1.9469   -0.5804    0.0000 C   0  0  0  0  0  0  0  0  0  0  0  0
    2.7692   -0.6651    0.0000 C   0  0  0  0  0  0  0  0  0  0  0  0
    3.0956   -1.4269    0.0000 C   0  0  0  0  0  0  0  0  0  0  0  0
    2.6240   -2.0920    0.0000 C   0  0  0  0  0  0  0  0  0  0  0  0
    3.9300   -1.4995    0.0000 N   0  0  0  0  0  0  0  0  0  0  0  0
    4.4863   -0.8949    0.0000 C   0  0  0  0  0  0  0  0  0  0  0  0
    5.2360   -1.2334    0.0000 C   0  0  0  0  0  0  0  0  0  0  0  0
    5.1393   -2.0557    0.0000 N   0  0  0  0  0  0  0  0  0  0  0  0
    4.3532   -2.2250    0.0000 C   0  0  0  0  0  0  0  0  0  0  0  0
    4.0147   -2.9747    0.0000 C   0  0  0  0  0  0  0  0  0  0  0  0
    4.4863   -3.6398    0.0000 C   0  0  0  0  0  0  0  0  0  0  0  0
    4.1598   -4.4016    0.0000 C   0  0  0  0  0  0  0  0  0  0  0  0
    3.3254   -4.4863    0.0000 C   0  0  0  0  0  0  0  0  0  0  0  0
    2.9868   -5.2360    0.0000 C   0  0  0  0  0  0  0  0  0  0  0  0
    2.8417   -3.8212    0.0000 C   0  0  0  0  0  0  0  0  0  0  0  0
    3.1803   -3.0715    0.0000 C   0  0  0  0  0  0  0  0  0  0  0  0
    5.9374   -0.8102    0.0000 C   0  0  0  0  0  0  0  0  0  0  0  0
    5.9374    0.0000    0.0000 O   0  0  0  0  0  0  0  0  0  0  0  0
    6.6629   -1.2334    0.0000 N   0  0  0  0  0  0  0  0  0  0  0  0
    7.3763   -0.8102    0.0000 C   0  0  0  0  0  0  0  0  0  0  0  0
    8.0898   -1.2334    0.0000 C   0  0  0  0  0  0  0  0  0  0  0  0
    8.0898   -2.0557    0.0000 N   0  0  0  0  0  0  0  0  0  0  0  0
    7.3763   -2.4789    0.0000 C   0  0  0  0  0  0  0  0  0  0  0  0
    6.6629   -2.0678    0.0000 C   0  0  0  0  0  0  0  0  0  0  0  0
    8.8154   -2.4789    0.0000 C   0  0  0  0  0  0  0  0  0  0  0  0
    9.5167   -2.0557    0.0000 C   0  0  0  0  0  0  0  0  0  0  0  0
   10.2423   -2.4789    0.0000 C   0  0  0  0  0  0  0  0  0  0  0  0
   10.9678   -2.0557    0.0000 C   0  0  0  0  0  0  0  0  0  0  0  0
   11.6571   -2.4789    0.0000 O   0  0  0  0  0  0  0  0  0  0  0  0
   10.9678   -1.2213    0.0000 O   0  0  0  0  0  0  0  0  0  0  0  0
   10.2423   -3.3012    0.0000 C   0  0  0  0  0  0  0  0  0  0  0  0
   10.9557   -3.7002    0.0000 C   0  0  0  0  0  0  0  0  0  0  0  0
   10.9557   -4.5347    0.0000 C   0  0  0  0  0  0  0  0  0  0  0  0
   10.2302   -4.9579    0.0000 C   0  0  0  0  0  0  0  0  0  0  0  0
    9.5167   -4.5347    0.0000 C   0  0  0  0  0  0  0  0  0  0  0  0
    9.5167   -3.7002    0.0000 C   0  0  0  0  0  0  0  0  0  0  0  0
    8.8154   -3.3012    0.0000 C   0  0  0  0  0  0  0  0  0  0  0  0
   12.0924   -1.4511    0.0000 Na  0  0  0  0  0 15  0  0  0  0  0  0
  1  2  1  0
  2  3  1  0
  3  4  1  0
  4  5  2  0
  4  9  1  0
  5  6  1  0
  6  7  2  0
  7  8  1  0
  8  9  2  0
  8 10  1  0
 10 11  1  0
 10 14  1  0
 11 12  2  0
 12 13  1  0
 12 22  1  0
 13 14  2  0
 14 15  1  0
 15 16  2  0
 15 21  1  0
 16 17  1  0
 17 18  2  0
 18 19  1  0
 18 20  1  0
 20 21  2  0
 22 23  2  0
 22 24  1  0
 24 25  1  0
 24 29  1  0
 25 26  1  0
 26 27  1  0
 27 28  1  0
 27 30  1  0
 28 29  1  0
 30 31  2  0
 30 42  1  0
 31 32  1  0
 32 33  1  0
 32 36  2  0
 33 34  2  0
 33 35  1  0
 36 37  1  0
 36 41  1  0
 37 38  2  0
 38 39  1  0
 39 40  2  0
 40 41  1  0
 41 42  2  0
M  CHG  2  35  -1  43   1
M  END
>  <Formula>  (472) 
C34H31N4NaO4

>  <FW>  (472) 
582.6241 (559.6349+22.9892)

>  <DSSTox_CID>  (472) 
27337

>  <NR-Aromatase>  (472) 
0

>  <NR-AR>  (472) 
0

>  <NR-AR-LBD>  (472) 
0

>  <NR-ER>  (472) 
0

>  <NR-AhR>  (472) 
0

>  <SR-ARE>  (472) 
1

>  <SR-HSE>  (472) 
0

>  <SR-MMP>  (472) 
1

$$$$
NCGC00254993-01
     RDKit          2D

 22 24  0  0  1  0  0  0  0  0999 V2000
    3.6689   -2.6734    0.0000 N   0  0  0  0  0  0  0  0  0  0  0  0
    2.5839   -3.4395    0.0000 N   0  0  0  0  0  0  0  0  0  0  0  0
    3.4116   -3.4395    0.0000 C   0  0  0  0  0  0  0  0  0  0  0  0
    3.0089   -2.1644    0.0000 C   0  0  0  0  0  0  0  0  0  0  0  0
    2.3322   -2.6510    0.0000 C   0  0  0  0  0  0  0  0  0  0  0  0
    3.0201   -1.3478    0.0000 O   0  0  0  0  0  0  0  0  0  0  0  0
    4.4575   -2.4217    0.0000 N   0  0  0  0  0  0  0  0  0  0  0  0
    4.6364   -1.6051    0.0000 C   0  0  0  0  0  0  0  0  0  0  0  0
    4.0268   -1.0571    0.0000 C   0  0  0  0  0  0  0  0  0  0  0  0
    5.4250   -1.3590    0.0000 C   0  0  0  0  0  0  0  0  0  0  0  0
    4.2058   -0.2405    0.0000 C   0  0  0  0  0  0  0  0  0  0  0  0
    5.5928   -0.5593    0.0000 C   0  0  0  0  0  0  0  0  0  0  0  0
    4.9944    0.0000    0.0000 C   0  0  0  0  0  0  0  0  0  0  0  0
    1.7841   -2.0358    0.0000 C   0  0  0  0  0  0  0  0  0  0  0  0
    3.8982   -4.1163    0.0000 S   0  0  0  0  0  0  0  0  0  0  0  0
    3.5514   -4.8657    0.0000 C   0  0  0  0  0  0  0  0  0  0  0  0
    1.5548   -2.9306    0.0000 C   0  0  0  0  0  0  0  0  0  0  0  0
    1.4038   -3.7416    0.0000 C   0  0  0  0  0  0  0  0  0  0  0  0
    0.9396   -2.3825    0.0000 C   0  0  0  0  0  0  0  0  0  0  0  0
    0.6264   -4.0156    0.0000 C   0  0  0  0  0  0  0  0  0  0  0  0
    0.1510   -2.6622    0.0000 C   0  0  0  0  0  0  0  0  0  0  0  0
    0.0000   -3.4787    0.0000 C   0  0  0  0  0  0  0  0  0  0  0  0
  1  3  1  0
  1  4  1  0
  1  7  1  0
  2  3  2  0
  2  5  1  0
  3 15  1  0
  4  5  1  0
  4  6  2  0
  5 14  1  6
  5 17  1  0
  7  8  1  0
  8  9  2  0
  8 10  1  0
  9 11  1  0
 10 12  2  0
 11 13  2  0
 12 13  1  0
 15 16  1  0
 17 18  2  0
 17 19  1  0
 18 20  1  0
 19 21  2  0
 20 22  2  0
 21 22  1  0
M  END
>  <Formula>  (473) 
C17H17N3OS

>  <FW>  (473) 
311.4014

>  <DSSTox_CID>  (473) 
14590

>  <NR-Aromatase>  (473) 
1

>  <NR-AR>  (473) 
0

>  <NR-AhR>  (473) 
0

>  <SR-ARE>  (473) 
1

>  <SR-ATAD5>  (473) 
0

>  <SR-HSE>  (473) 
0

>  <SR-MMP>  (473) 
1

>  <SR-p53>  (473) 
0

$$$$
NCGC00253993-01
     RDKit          2D

 34 36  0  0  1  0  0  0  0  0999 V2000
    1.4198   -4.9117    0.0000 C   0  0  0  0  0  0  0  0  0  0  0  0
    1.4198   -5.7368    0.0000 C   0  0  0  0  0  0  0  0  0  0  0  0
    0.7035   -4.5024    0.0000 C   0  0  0  0  0  0  0  0  0  0  0  0
    0.7035   -6.1461    0.0000 C   0  0  0  0  0  0  0  0  0  0  0  0
    0.0000   -4.9117    0.0000 C   0  0  0  0  0  0  0  0  0  0  0  0
    0.0000   -5.7368    0.0000 C   0  0  0  0  0  0  0  0  0  0  0  0
    2.1361   -4.5024    0.0000 N   0  0  0  0  0  0  0  0  0  0  0  0
    2.8460   -4.9117    0.0000 C   0  0  0  0  0  0  0  0  0  0  0  0
    2.1361   -6.1461    0.0000 C   0  0  0  0  0  0  0  0  0  0  0  0
    2.8460   -5.7368    0.0000 C   0  0  0  0  0  0  0  0  0  0  0  0
    0.7035   -3.6774    0.0000 S   0  0  0  0  0  0  0  0  0  0  0  0
    1.4198   -3.2617    0.0000 N   0  0  0  0  0  0  0  0  0  0  0  0
    0.0000   -3.2809    0.0000 O   0  0  0  0  0  0  0  0  0  0  0  0
    0.0000   -4.0995    0.0000 O   0  0  0  0  0  0  0  0  0  0  0  0
    1.4198   -2.4431    0.0000 C   0  0  0  0  0  0  0  0  0  0  0  0
    2.1361   -1.2216    0.0000 C   0  0  0  0  0  0  0  0  0  0  0  0
    2.1361   -2.0466    0.0000 C   0  0  0  0  0  0  0  0  0  0  0  0
    1.4198   -0.8058    0.0000 C   0  0  0  0  0  0  0  0  0  0  0  0
    0.7035   -1.2216    0.0000 C   0  0  0  0  0  0  0  0  0  0  0  0
    0.7035   -2.0466    0.0000 C   0  0  0  0  0  0  0  0  0  0  0  0
    2.8460   -2.4558    0.0000 C   0  0  0  0  0  0  0  0  0  0  0  0
    2.8460   -3.2809    0.0000 O   0  0  0  0  0  0  0  0  0  0  0  0
    3.5623   -2.0466    0.0000 N   0  0  0  0  0  0  0  0  0  0  0  0
    4.2658   -2.4558    0.0000 C   0  0  0  0  0  0  0  0  0  0  0  0
    4.9757   -2.0466    0.0000 C   0  0  0  0  0  0  0  0  0  0  0  0
    4.2658   -3.2809    0.0000 C   0  0  0  0  0  0  0  0  0  0  0  0
    4.9757   -3.6774    0.0000 C   0  0  0  0  0  0  0  0  0  0  0  0
    6.3955   -1.2216    0.0000 C   0  0  0  0  0  0  0  0  0  0  0  0
    6.3955   -2.0466    0.0000 C   0  0  0  0  0  0  0  0  0  0  0  0
    5.6920   -0.8122    0.0000 C   0  0  0  0  0  0  0  0  0  0  0  0
    5.6920   -2.4558    0.0000 C   0  0  0  0  0  0  0  0  0  0  0  0
    4.9757   -1.2216    0.0000 C   0  0  0  0  0  0  0  0  0  0  0  0
    1.3942    0.0000    0.0000 F   0  0  0  0  0  0  0  0  0  0  0  0
    1.9698   -3.8118    0.0000 Na  0  0  0  0  0 15  0  0  0  0  0  0
  1  3  2  0
  1  7  1  0
  1  2  1  0
  2  4  2  0
  2  9  1  0
  3  5  1  0
  3 11  1  0
  4  6  1  0
  5  6  2  0
  7  8  2  0
  8 10  1  0
  9 10  2  0
 11 12  1  0
 11 13  2  0
 11 14  2  0
 12 15  1  0
 15 17  1  0
 15 20  2  0
 16 17  2  0
 16 18  1  0
 17 21  1  0
 18 19  2  0
 18 33  1  0
 19 20  1  0
 21 22  2  0
 21 23  1  0
 24 23  1  0
 24 25  1  0
 24 26  1  6
 25 31  2  0
 25 32  1  0
 26 27  1  0
 28 29  2  0
 28 30  1  0
 29 31  1  0
 30 32  2  0
M  CHG  2  12  -1  34   1
M  END
>  <Formula>  (474) 
C25H21FN3NaO3S

>  <FW>  (474) 
485.5057 (462.5165+22.9892)

>  <DSSTox_CID>  (474) 
27372

>  <NR-AR>  (474) 
0

>  <NR-AR-LBD>  (474) 
0

>  <NR-ER>  (474) 
0

>  <NR-ER-LBD>  (474) 
0

>  <NR-PPAR-gamma>  (474) 
0

>  <NR-AhR>  (474) 
0

>  <SR-ATAD5>  (474) 
0

>  <SR-MMP>  (474) 
1

$$$$
NCGC00185768-01
     RDKit          2D

 38 40  0  0  1  0  0  0  0  0999 V2000
    2.1413   -3.3001    0.0000 C   0  0  0  0  0  0  0  0  0  0  0  0
    2.8551   -3.7264    0.0000 C   0  0  0  0  0  0  0  0  0  0  0  0
    2.1413   -2.4751    0.0000 C   0  0  0  0  0  0  0  0  0  0  0  0
    1.4183   -3.7264    0.0000 C   0  0  0  0  0  0  0  0  0  0  0  0
    3.5689   -3.3001    0.0000 C   0  0  0  0  0  0  0  0  0  0  0  0
    2.8551   -4.5514    0.0000 C   0  0  0  0  0  0  0  0  0  0  0  0
    1.4183   -2.0579    0.0000 C   0  0  0  0  0  0  0  0  0  0  0  0
    2.8551   -2.0579    0.0000 C   0  0  0  0  0  0  0  0  0  0  0  0
    1.4183   -4.5514    0.0000 C   0  0  0  0  0  0  0  0  0  0  0  0
    0.7138   -3.3001    0.0000 C   0  0  0  0  0  0  0  0  0  0  0  0
    4.2826   -3.7264    0.0000 O   0  0  0  0  0  0  0  0  0  0  0  0
    3.5689   -2.4751    0.0000 O   0  0  0  0  0  0  0  0  0  0  0  0
    2.1413   -4.9593    0.0000 N   0  0  0  0  0  0  0  0  0  0  0  0
    3.5689   -4.9593    0.0000 C   0  0  0  0  0  0  0  0  0  0  0  0
    1.4183   -1.2421    0.0000 C   0  0  0  0  0  0  0  0  0  0  0  0
    2.8551   -1.2421    0.0000 C   0  0  0  0  0  0  0  0  0  0  0  0
    0.7138   -4.9593    0.0000 C   0  0  0  0  0  0  0  0  0  0  0  0
    0.7138   -2.4751    0.0000 O   0  0  0  0  0  0  0  0  0  0  0  0
    0.0000   -3.7264    0.0000 O   0  0  0  0  0  0  0  0  0  0  0  0
    4.9964   -3.3001    0.0000 C   0  0  0  0  0  0  0  0  0  0  0  0
    2.1413   -0.8250    0.0000 C   0  0  0  0  0  0  0  0  0  0  0  0
    0.7138   -0.8250    0.0000 N   0  0  0  0  0  0  0  0  0  0  0  0
    0.0000   -2.0579    0.0000 C   0  0  0  0  0  0  0  0  0  0  0  0
    5.7009   -3.7264    0.0000 C   0  0  0  0  0  0  0  0  0  0  0  0
    4.9964   -2.4751    0.0000 C   0  0  0  0  0  0  0  0  0  0  0  0
    0.0000   -1.2421    0.0000 O   0  0  0  0  0  0  0  0  0  0  0  0
    0.7138    0.0000    0.0000 O   0  0  0  0  0  0  0  0  0  0  0  0
    6.4240   -3.3001    0.0000 N   0  0  0  0  0  0  0  0  0  0  0  0
    5.7009   -2.0579    0.0000 C   0  0  0  0  0  0  0  0  0  0  0  0
    7.1285   -3.7264    0.0000 C   0  0  0  0  0  0  0  0  0  0  0  0
    6.4240   -2.4751    0.0000 C   0  0  0  0  0  0  0  0  0  0  0  0
    7.8608   -3.3001    0.0000 C   0  0  0  0  0  0  0  0  0  0  0  0
    8.5560   -3.7264    0.0000 C   0  0  0  0  0  0  0  0  0  0  0  0
    7.8608   -2.4751    0.0000 C   0  0  0  0  0  0  0  0  0  0  0  0
    9.2698   -3.3001    0.0000 C   0  0  0  0  0  0  0  0  0  0  0  0
    8.5560   -2.0579    0.0000 C   0  0  0  0  0  0  0  0  0  0  0  0
    9.2698   -2.4751    0.0000 C   0  0  0  0  0  0  0  0  0  0  0  0
    2.9942   -5.8307    0.0000 Cl  0  0  0  0  0  0  0  0  0  0  0  0
  1  2  1  0
  1  3  1  1
  1  4  1  0
  2  5  1  0
  2  6  2  0
  3  7  2  0
  3  8  1  0
  4  9  2  0
  4 10  1  0
  5 11  1  0
  5 12  2  0
  6 13  1  0
  6 14  1  0
  7 15  1  0
  8 16  2  0
  9 17  1  0
  9 13  1  0
 10 18  1  0
 10 19  2  0
 20 11  1  6
 15 21  2  0
 15 22  1  0
 16 21  1  0
 18 23  1  0
 20 24  1  0
 20 25  1  0
 22 26  2  0
 22 27  1  0
 24 28  1  0
 25 29  1  0
 28 30  1  0
 28 31  1  0
 29 31  1  0
 30 32  1  0
 32 33  2  0
 32 34  1  0
 33 35  1  0
 34 36  2  0
 35 37  2  0
 36 37  1  0
M  CHG  2  22   1  27  -1
M  END
>  <Formula>  (475) 
C28H32ClN3O6

>  <FW>  (475) 
542.0232 (505.5622+36.4609)

>  <DSSTox_CID>  (475) 
28976

>  <NR-AR>  (475) 
0

>  <NR-AR-LBD>  (475) 
0

>  <NR-ER>  (475) 
0

>  <NR-ER-LBD>  (475) 
0

>  <SR-ATAD5>  (475) 
0

>  <SR-HSE>  (475) 
0

>  <SR-MMP>  (475) 
1

>  <SR-p53>  (475) 
0

$$$$
NCGC00257427-01
     RDKit          2D

 25 27  0  0  0  0  0  0  0  0999 V2000
    2.1512   -2.0285    0.0000 C   0  0  0  0  0  0  0  0  0  0  0  0
    2.1512   -2.8586    0.0000 O   0  0  0  0  0  0  0  0  0  0  0  0
    1.4293   -1.6098    0.0000 C   0  0  0  0  0  0  0  0  0  0  0  0
    1.4293   -0.7868    0.0000 C   0  0  0  0  0  0  0  0  0  0  0  0
    0.7147   -2.0285    0.0000 C   0  0  0  0  0  0  0  0  0  0  0  0
    0.7147   -0.3826    0.0000 C   0  0  0  0  0  0  0  0  0  0  0  0
    0.0000   -1.6098    0.0000 C   0  0  0  0  0  0  0  0  0  0  0  0
    0.0000   -0.7868    0.0000 C   0  0  0  0  0  0  0  0  0  0  0  0
    2.8659   -1.6098    0.0000 N   0  0  0  0  0  0  0  0  0  0  0  0
    2.1512   -0.3826    0.0000 Cl  0  0  0  0  0  0  0  0  0  0  0  0
    0.7147   -2.8586    0.0000 Cl  0  0  0  0  0  0  0  0  0  0  0  0
    4.4540   -0.8085    0.0000 O   0  0  0  0  0  0  0  0  0  0  0  0
    4.2879   -1.6098    0.0000 C   0  0  0  0  0  0  0  0  0  0  0  0
    5.2769   -0.7147    0.0000 C   0  0  0  0  0  0  0  0  0  0  0  0
    5.0026   -2.0285    0.0000 C   0  0  0  0  0  0  0  0  0  0  0  0
    5.6089   -1.4726    0.0000 C   0  0  0  0  0  0  0  0  0  0  0  0
    3.5661   -2.0213    0.0000 C   0  0  0  0  0  0  0  0  0  0  0  0
    3.5661   -2.8442    0.0000 C   0  0  0  0  0  0  0  0  0  0  0  0
    4.2879   -3.2629    0.0000 C   0  0  0  0  0  0  0  0  0  0  0  0
    5.0026   -2.8442    0.0000 C   0  0  0  0  0  0  0  0  0  0  0  0
    6.2442   -2.4471    0.0000 C   0  0  0  0  0  0  0  0  0  0  0  0
    6.4102   -1.6387    0.0000 C   0  0  0  0  0  0  0  0  0  0  0  0
    6.5835   -0.8374    0.0000 C   0  0  0  0  0  0  0  0  0  0  0  0
    7.2188   -1.8119    0.0000 O   0  0  0  0  0  0  0  0  0  0  0  0
    5.6884    0.0000    0.0000 C   0  0  0  0  0  0  0  0  0  0  0  0
  1  2  2  0
  1  3  1  0
  1  9  1  0
  3  4  2  0
  3  5  1  0
  4  6  1  0
  4 10  1  0
  5  7  2  0
  5 11  1  0
  6  8  2  0
  7  8  1  0
  9 17  1  0
 12 13  1  0
 12 14  1  0
 13 15  2  0
 13 17  1  0
 14 16  2  0
 14 25  1  0
 15 16  1  0
 15 20  1  0
 16 22  1  0
 17 18  2  0
 18 19  1  0
 19 20  2  0
 21 22  1  0
 22 23  1  0
 22 24  1  0
M  END
>  <Formula>  (476) 
C19H17Cl2NO3

>  <FW>  (476) 
378.2492

>  <DSSTox_CID>  (476) 
28148

>  <NR-Aromatase>  (476) 
1

>  <NR-AR>  (476) 
0

>  <NR-AR-LBD>  (476) 
0

>  <NR-ER-LBD>  (476) 
0

>  <NR-AhR>  (476) 
1

>  <SR-ATAD5>  (476) 
0

>  <SR-HSE>  (476) 
0

>  <SR-MMP>  (476) 
1

>  <SR-p53>  (476) 
0

$$$$
NCGC00183006-01
     RDKit          2D

 33 38  0  0  1  0  0  0  0  0999 V2000
    1.4338   -2.0186    0.0000 C   0  0  0  0  0  0  0  0  0  0  0  0
    1.4338   -2.8436    0.0000 C   0  0  0  0  0  0  0  0  0  0  0  0
    0.7129   -1.5941    0.0000 C   0  0  0  0  0  0  0  0  0  0  0  0
    0.7129   -3.2521    0.0000 C   0  0  0  0  0  0  0  0  0  0  0  0
    0.0000   -2.0186    0.0000 C   0  0  0  0  0  0  0  0  0  0  0  0
    0.0000   -2.8436    0.0000 C   0  0  0  0  0  0  0  0  0  0  0  0
    2.2188   -1.7542    0.0000 N   0  0  0  0  0  0  0  0  0  0  0  0
    2.6994   -2.4271    0.0000 C   0  0  0  0  0  0  0  0  0  0  0  0
    2.2188   -3.0919    0.0000 C   0  0  0  0  0  0  0  0  0  0  0  0
    3.5245   -2.4271    0.0000 C   0  0  0  0  0  0  0  0  0  0  0  0
    3.9490   -3.1320    0.0000 O   0  0  0  0  0  0  0  0  0  0  0  0
    3.9490   -1.6982    0.0000 N   0  0  0  0  0  0  0  0  0  0  0  0
    4.7741   -1.6982    0.0000 C   0  0  0  0  0  0  0  0  0  0  0  0
    5.1265   -0.9532    0.0000 C   0  0  0  0  0  0  0  0  0  0  0  0
    5.1265   -2.4431    0.0000 N   0  0  0  0  0  0  0  0  0  0  0  0
    5.9195   -0.7850    0.0000 N   0  0  0  0  0  0  0  0  0  0  0  0
    5.9195   -2.6354    0.0000 C   0  0  0  0  0  0  0  0  0  0  0  0
    6.5764   -2.1227    0.0000 C   0  0  0  0  0  0  0  0  0  0  0  0
    6.5764   -1.2976    0.0000 C   0  0  0  0  0  0  0  0  0  0  0  0
    4.5978   -0.3124    0.0000 O   0  0  0  0  0  0  0  0  0  0  0  0
    8.0102   -1.2976    0.0000 C   0  0  0  0  0  0  0  0  0  0  0  0
    8.0102   -2.1227    0.0000 C   0  0  0  0  0  0  0  0  0  0  0  0
    7.2973   -0.8731    0.0000 C   0  0  0  0  0  0  0  0  0  0  0  0
    7.2973   -2.5232    0.0000 C   0  0  0  0  0  0  0  0  0  0  0  0
    6.2079    0.0000    0.0000 C   0  0  0  0  0  0  0  0  0  0  0  0
    7.0730   -0.0801    0.0000 C   0  0  0  0  0  0  0  0  0  0  0  0
    6.6485   -3.8769    0.0000 C   0  0  0  0  0  0  0  0  0  0  0  0
    6.6485   -4.7019    0.0000 C   0  0  0  0  0  0  0  0  0  0  0  0
    5.9195   -3.4604    0.0000 C   0  0  0  0  0  0  0  0  0  0  0  0
    5.9195   -5.1105    0.0000 C   0  0  0  0  0  0  0  0  0  0  0  0
    5.2146   -3.8769    0.0000 C   0  0  0  0  0  0  0  0  0  0  0  0
    5.2146   -4.7019    0.0000 C   0  0  0  0  0  0  0  0  0  0  0  0
    7.3613   -3.4604    0.0000 F   0  0  0  0  0  0  0  0  0  0  0  0
  1  3  2  0
  1  7  1  0
  1  2  1  0
  2  4  2  0
  2  9  1  0
  3  5  1  0
  4  6  1  0
  5  6  2  0
  7  8  1  0
  8  9  2  0
  8 10  1  0
 10 11  2  0
 10 12  1  0
 13 12  1  1
 13 14  1  0
 13 15  1  0
 14 16  1  0
 14 20  2  0
 15 17  2  0
 16 25  1  0
 16 19  1  0
 17 18  1  0
 17 29  1  0
 18 24  2  0
 18 19  1  0
 19 23  2  0
 21 22  2  0
 21 23  1  0
 22 24  1  0
 23 26  1  0
 25 26  1  0
 27 28  2  0
 27 29  1  0
 27 33  1  0
 28 30  1  0
 29 31  2  0
 30 32  2  0
 31 32  1  0
M  END
>  <Formula>  (477) 
C26H19FN4O2

>  <FW>  (477) 
438.4531

>  <DSSTox_CID>  (477) 
28712

>  <NR-Aromatase>  (477) 
0

>  <NR-AR>  (477) 
0

>  <NR-AR-LBD>  (477) 
0

>  <NR-ER-LBD>  (477) 
0

>  <NR-PPAR-gamma>  (477) 
0

>  <NR-AhR>  (477) 
1

>  <SR-ATAD5>  (477) 
1

>  <SR-HSE>  (477) 
0

>  <SR-MMP>  (477) 
1

$$$$
NCGC00016526-02
     RDKit          2D

 26 29  0  0  0  0  0  0  0  0999 V2000
    7.0874   -0.7125    0.0000 C   0  0  0  0  0  0  0  0  0  0  0  0
    6.2624   -0.7125    0.0000 O   0  0  0  0  0  0  0  0  0  0  0  0
    5.8499   -1.4250    0.0000 C   0  0  0  0  0  0  0  0  0  0  0  0
    5.0249   -1.4250    0.0000 C   0  0  0  0  0  0  0  0  0  0  0  0
    4.6124   -0.7125    0.0000 C   0  0  0  0  0  0  0  0  0  0  0  0
    3.7874   -0.7125    0.0000 N   0  0  0  0  0  0  0  0  0  0  0  0
    3.3675    0.0000    0.0000 C   0  0  0  0  0  0  0  0  0  0  0  0
    2.5425    0.0000    0.0000 C   0  0  0  0  0  0  0  0  0  0  0  0
    2.1300   -0.7125    0.0000 C   0  0  0  0  0  0  0  0  0  0  0  0
    2.5425   -1.4250    0.0000 C   0  0  0  0  0  0  0  0  0  0  0  0
    2.1300   -2.1450    0.0000 C   0  0  0  0  0  0  0  0  0  0  0  0
    1.3050   -2.1450    0.0000 C   0  0  0  0  0  0  0  0  0  0  0  0
    0.7575   -2.7525    0.0000 O   0  0  0  0  0  0  0  0  0  0  0  0
    0.0000   -2.4224    0.0000 C   0  0  0  0  0  0  0  0  0  0  0  0
    0.0900   -1.5975    0.0000 O   0  0  0  0  0  0  0  0  0  0  0  0
    0.8925   -1.4250    0.0000 C   0  0  0  0  0  0  0  0  0  0  0  0
    1.3050   -0.7125    0.0000 C   0  0  0  0  0  0  0  0  0  0  0  0
    3.3675   -1.4250    0.0000 C   0  0  0  0  0  0  0  0  0  0  0  0
    3.7874   -2.1450    0.0000 C   0  0  0  0  0  0  0  0  0  0  0  0
    4.6124   -2.1450    0.0000 C   0  0  0  0  0  0  0  0  0  0  0  0
    5.0249   -2.8574    0.0000 C   0  0  0  0  0  0  0  0  0  0  0  0
    5.8499   -2.8574    0.0000 C   0  0  0  0  0  0  0  0  0  0  0  0
    6.2624   -2.1450    0.0000 C   0  0  0  0  0  0  0  0  0  0  0  0
    7.0874   -2.1450    0.0000 O   0  0  0  0  0  0  0  0  0  0  0  0
    7.4998   -2.8574    0.0000 C   0  0  0  0  0  0  0  0  0  0  0  0
    3.7124   -3.6824    0.0000 Cl  0  0  0  0  0  0  0  0  0  0  0  0
  1  2  1  0
  2  3  1  0
  3  4  2  0
  3 23  1  0
  4  5  1  0
  4 20  1  0
  5  6  2  0
  6  7  1  0
  6 18  1  0
  7  8  1  0
  8  9  1  0
  9 10  2  0
  9 17  1  0
 10 11  1  0
 10 18  1  0
 11 12  2  0
 12 13  1  0
 12 16  1  0
 13 14  1  0
 14 15  1  0
 15 16  1  0
 16 17  2  0
 18 19  2  0
 19 20  1  0
 20 21  2  0
 21 22  1  0
 22 23  2  0
 23 24  1  0
 24 25  1  0
M  CHG  2   6   1  26  -1
M  END
>  <Formula>  (478) 
C20H18ClNO4

>  <FW>  (478) 
371.8142 (336.3607+35.4535)

>  <DSSTox_CID>  (478) 
4602

>  <NR-AR>  (478) 
0

>  <NR-AR-LBD>  (478) 
0

>  <NR-ER-LBD>  (478) 
0

>  <NR-PPAR-gamma>  (478) 
0

>  <NR-AhR>  (478) 
1

>  <SR-ATAD5>  (478) 
0

>  <SR-MMP>  (478) 
1

>  <SR-p53>  (478) 
0

$$$$
NCGC00164547-01
     RDKit          2D

 41 45  0  0  0  0  0  0  0  0999 V2000
    1.4122   -3.3587    0.0000 C   0  0  0  0  0  0  0  0  0  0  0  0
    1.4122   -4.1729    0.0000 C   0  0  0  0  0  0  0  0  0  0  0  0
    0.7125   -2.9389    0.0000 C   0  0  0  0  0  0  0  0  0  0  0  0
    0.7125   -4.5800    0.0000 C   0  0  0  0  0  0  0  0  0  0  0  0
    0.0000   -3.3587    0.0000 C   0  0  0  0  0  0  0  0  0  0  0  0
    0.0000   -4.1729    0.0000 C   0  0  0  0  0  0  0  0  0  0  0  0
    2.1247   -2.9389    0.0000 C   0  0  0  0  0  0  0  0  0  0  0  0
    2.1247   -4.5800    0.0000 S   0  0  0  0  0  0  0  0  0  0  0  0
    2.8371   -4.1857    0.0000 N   0  0  0  0  0  0  0  0  0  0  0  0
    4.2620   -3.3587    0.0000 C   0  0  0  0  0  0  0  0  0  0  0  0
    3.5496   -4.5800    0.0000 C   0  0  0  0  0  0  0  0  0  0  0  0
    4.2620   -4.1857    0.0000 C   0  0  0  0  0  0  0  0  0  0  0  0
    5.6869   -3.3587    0.0000 C   0  0  0  0  0  0  0  0  0  0  0  0
    5.6869   -4.1857    0.0000 C   0  0  0  0  0  0  0  0  0  0  0  0
    4.9745   -2.9389    0.0000 C   0  0  0  0  0  0  0  0  0  0  0  0
    4.9745   -4.5800    0.0000 C   0  0  0  0  0  0  0  0  0  0  0  0
    6.3994   -2.1119    0.0000 C   0  0  0  0  0  0  0  0  0  0  0  0
    6.3994   -2.9389    0.0000 C   0  0  0  0  0  0  0  0  0  0  0  0
    4.9745   -2.1119    0.0000 O   0  0  0  0  0  0  0  0  0  0  0  0
    4.2620   -1.7048    0.0000 C   0  0  0  0  0  0  0  0  0  0  0  0
    1.7175   -5.2925    0.0000 O   0  0  0  0  0  0  0  0  0  0  0  0
    2.5317   -5.2925    0.0000 O   0  0  0  0  0  0  0  0  0  0  0  0
    3.5496   -5.4070    0.0000 O   0  0  0  0  0  0  0  0  0  0  0  0
    8.6003   -1.0432    0.0000 C   0  0  0  0  0  0  0  0  0  0  0  0
    8.6003   -1.8702    0.0000 C   0  0  0  0  0  0  0  0  0  0  0  0
    7.9006   -0.6361    0.0000 C   0  0  0  0  0  0  0  0  0  0  0  0
    7.9006   -2.2773    0.0000 C   0  0  0  0  0  0  0  0  0  0  0  0
    7.1754   -1.0432    0.0000 C   0  0  0  0  0  0  0  0  0  0  0  0
    7.1754   -1.8702    0.0000 C   0  0  0  0  0  0  0  0  0  0  0  0
    6.3994   -0.7761    0.0000 N   0  0  0  0  0  0  0  0  0  0  0  0
    5.9159   -1.4631    0.0000 C   0  0  0  0  0  0  0  0  0  0  0  0
    6.1449    0.0000    0.0000 C   0  0  0  0  0  0  0  0  0  0  0  0
    9.3128   -2.2773    0.0000 N   0  0  0  0  0  0  0  0  0  0  0  0
   10.0252   -1.8702    0.0000 C   0  0  0  0  0  0  0  0  0  0  0  0
   10.7377   -2.2773    0.0000 O   0  0  0  0  0  0  0  0  0  0  0  0
   11.4502   -1.8702    0.0000 C   0  0  0  0  0  0  0  0  0  0  0  0
   11.4502   -1.0432    0.0000 C   0  0  0  0  0  0  0  0  0  0  0  0
   10.0252   -1.0432    0.0000 O   0  0  0  0  0  0  0  0  0  0  0  0
   12.2390   -2.1119    0.0000 C   0  0  0  0  0  0  0  0  0  0  0  0
   12.7224   -1.4631    0.0000 C   0  0  0  0  0  0  0  0  0  0  0  0
   12.2390   -0.7761    0.0000 C   0  0  0  0  0  0  0  0  0  0  0  0
  1  3  2  0
  1  7  1  0
  1  2  1  0
  2  4  2  0
  2  8  1  0
  3  5  1  0
  4  6  1  0
  5  6  2  0
  8  9  1  0
  8 21  2  0
  8 22  2  0
  9 11  1  0
 10 15  2  0
 10 12  1  0
 11 12  1  0
 11 23  2  0
 12 16  2  0
 13 14  2  0
 13 15  1  0
 13 18  1  0
 14 16  1  0
 15 19  1  0
 17 18  1  0
 17 29  1  0
 17 31  2  0
 19 20  1  0
 24 25  2  0
 24 26  1  0
 25 27  1  0
 25 33  1  0
 26 28  2  0
 27 29  2  0
 28 29  1  0
 28 30  1  0
 30 31  1  0
 30 32  1  0
 33 34  1  0
 34 35  1  0
 34 38  2  0
 35 36  1  0
 36 39  1  0
 36 37  1  0
 37 41  1  0
 39 40  1  0
 40 41  1  0
M  END
>  <Formula>  (479) 
C31H33N3O6S

>  <FW>  (479) 
575.6752

>  <DSSTox_CID>  (479) 
3746

>  <NR-Aromatase>  (479) 
0

>  <NR-AR>  (479) 
0

>  <NR-AR-LBD>  (479) 
0

>  <NR-ER>  (479) 
0

>  <NR-ER-LBD>  (479) 
0

>  <NR-PPAR-gamma>  (479) 
1

>  <NR-AhR>  (479) 
1

>  <SR-ATAD5>  (479) 
0

>  <SR-MMP>  (479) 
1

$$$$
NCGC00016950-01
     RDKit          2D

 35 39  0  0  1  0  0  0  0  0999 V2000
    4.3013   -2.1755    0.0000 C   0  0  0  0  0  0  0  0  0  0  0  0
    5.0871   -1.9191    0.0000 C   0  0  0  0  0  0  0  0  0  0  0  0
    2.8869   -3.0110    0.0000 C   0  0  0  0  0  0  0  0  0  0  0  0
    2.1672   -3.4245    0.0000 C   0  0  0  0  0  0  0  0  0  0  0  0
    4.3013   -3.0110    0.0000 C   0  0  0  0  0  0  0  0  0  0  0  0
    3.5899   -3.4245    0.0000 C   0  0  0  0  0  0  0  0  0  0  0  0
    2.1672   -4.2600    0.0000 C   0  0  0  0  0  0  0  0  0  0  0  0
    5.9226   -1.9191    0.0000 O   0  0  0  0  0  0  0  0  0  0  0  0
    2.8869   -2.1755    0.0000 C   0  0  0  0  0  0  0  0  0  0  0  0
    3.5899   -1.7701    0.0000 C   0  0  0  0  0  0  0  0  0  0  0  0
    5.5752   -2.6056    0.0000 C   0  0  0  0  0  0  0  0  0  0  0  0
    6.7498   -1.9191    0.0000 C   0  0  0  0  0  0  0  0  0  0  0  0
    1.4724   -3.0110    0.0000 C   0  0  0  0  0  0  0  0  0  0  0  0
    5.0871   -3.2591    0.0000 C   0  0  0  0  0  0  0  0  0  0  0  0
    7.2048   -1.2573    0.0000 C   0  0  0  0  0  0  0  0  0  0  0  0
    1.4724   -4.6653    0.0000 C   0  0  0  0  0  0  0  0  0  0  0  0
    5.3188   -1.1332    0.0000 C   0  0  0  0  0  0  0  0  0  0  0  0
    3.5899   -4.2600    0.0000 C   0  0  0  0  0  0  0  0  0  0  0  0
    0.7362   -3.4245    0.0000 C   0  0  0  0  0  0  0  0  0  0  0  0
    0.7362   -4.2600    0.0000 C   0  0  0  0  0  0  0  0  0  0  0  0
    8.0154   -1.2656    0.0000 O   0  0  0  0  0  0  0  0  0  0  0  0
    2.8869   -4.6653    0.0000 C   0  0  0  0  0  0  0  0  0  0  0  0
    7.2048   -2.6056    0.0000 O   0  0  0  0  0  0  0  0  0  0  0  0
    6.9483   -0.4550    0.0000 C   0  0  0  0  0  0  0  0  0  0  0  0
    2.8951   -3.7968    0.0000 Cl  0  0  0  0  0  0  0  0  0  0  0  0
    4.7398   -0.5294    0.0000 O   0  0  0  0  0  0  0  0  0  0  0  0
    8.2718   -0.4550    0.0000 C   0  0  0  0  0  0  0  0  0  0  0  0
    7.5936    0.0000    0.0000 C   0  0  0  0  0  0  0  0  0  0  0  0
    0.0000   -4.6736    0.0000 O   0  0  0  0  0  0  0  0  0  0  0  0
    4.3013   -1.3400    0.0000 C   0  0  0  0  0  0  0  0  0  0  0  0
    2.1589   -1.7619    0.0000 O   0  0  0  0  0  0  0  0  0  0  0  0
    2.1672   -2.6056    0.0000 C   0  0  0  0  0  0  0  0  0  0  0  0
    6.1129   -0.9264    0.0000 C   0  0  0  0  0  0  0  0  0  0  0  0
    6.3114   -0.1075    0.0000 Cl  0  0  0  0  0  0  0  0  0  0  0  0
    6.4106   -2.5974    0.0000 C   0  0  0  0  0  0  0  0  0  0  0  0
  1  2  1  0
  1  5  1  0
  1 10  1  0
  1 30  1  1
  2  8  1  6
  2 11  1  0
  2 17  1  0
  3  9  1  0
  3  4  1  0
  3 25  1  6
  3  6  1  0
  4  7  1  0
  4 13  1  0
  4 32  1  1
  5  6  1  0
  5 14  1  1
  6 18  1  6
  7 16  2  0
  7 22  1  0
  8 12  1  0
  9 10  1  0
  9 31  1  1
 11 35  1  6
 11 14  1  0
 12 15  1  0
 12 23  2  0
 13 19  2  0
 15 21  1  0
 15 24  2  0
 16 20  1  0
 17 26  2  0
 17 33  1  0
 18 22  1  0
 19 20  1  0
 20 29  2  0
 21 27  1  0
 24 28  1  0
 27 28  2  0
 33 34  1  0
M  END
>  <Formula>  (480) 
C27H30Cl2O6

>  <FW>  (480) 
521.4295

>  <DSSTox_CID>  (480) 
3333

>  <NR-AR>  (480) 
1

>  <NR-ER>  (480) 
0

>  <NR-ER-LBD>  (480) 
0

>  <NR-PPAR-gamma>  (480) 
0

>  <NR-AhR>  (480) 
0

>  <SR-ATAD5>  (480) 
0

>  <SR-MMP>  (480) 
1

>  <SR-p53>  (480) 
0

$$$$
NCGC00094556-01
     RDKit          2D

 62 68  0  0  1  0  0  0  0  0999 V2000
    8.8767   -8.0435    0.0000 C   0  0  0  0  0  0  0  0  0  0  0  0
    8.8767   -8.8932    0.0000 C   0  0  0  0  0  0  0  0  0  0  0  0
    9.5944   -7.6310    0.0000 C   0  0  0  0  0  0  0  0  0  0  0  0
    8.1425   -7.6393    0.0000 C   0  0  0  0  0  0  0  0  0  0  0  0
    8.8685   -7.2103    0.0000 O   0  0  0  0  0  0  0  0  0  0  0  0
    7.4330   -8.8932    0.0000 O   0  0  0  0  0  0  0  0  0  0  0  0
    9.5779   -9.2892    0.0000 C   0  0  0  0  0  0  0  0  0  0  0  0
    9.5944   -6.8225    0.0000 C   0  0  0  0  0  0  0  0  0  0  0  0
   10.3039   -8.0435    0.0000 C   0  0  0  0  0  0  0  0  0  0  0  0
    7.4330   -8.0435    0.0000 C   0  0  0  0  0  0  0  0  0  0  0  0
    8.1425   -6.8225    0.0000 C   0  0  0  0  0  0  0  0  0  0  0  0
   10.3039   -8.8932    0.0000 C   0  0  0  0  0  0  0  0  0  0  0  0
    9.5779  -10.1224    0.0000 O   0  0  0  0  0  0  0  0  0  0  0  0
   10.3122   -6.4018    0.0000 O   0  0  0  0  0  0  0  0  0  0  0  0
    8.8932   -6.3853    0.0000 O   0  0  0  0  0  0  0  0  0  0  0  0
    7.4578   -6.4018    0.0000 C   0  0  0  0  0  0  0  0  0  0  0  0
   11.0299   -9.2892    0.0000 C   0  0  0  0  0  0  0  0  0  0  0  0
   10.3287   -5.5768    0.0000 C   0  0  0  0  0  0  0  0  0  0  0  0
    7.4578   -5.5768    0.0000 C   0  0  0  0  0  0  0  0  0  0  0  0
   11.0794   -5.1726    0.0000 C   0  0  0  0  0  0  0  0  0  0  0  0
    9.6357   -5.1314    0.0000 C   0  0  0  0  0  0  0  0  0  0  0  0
    6.7483   -5.1561    0.0000 C   0  0  0  0  0  0  0  0  0  0  0  0
   11.0794   -4.3641    0.0000 C   0  0  0  0  0  0  0  0  0  0  0  0
    9.6357   -4.3228    0.0000 C   0  0  0  0  0  0  0  0  0  0  0  0
    6.7483   -4.3393    0.0000 C   0  0  0  0  0  0  0  0  0  0  0  0
    6.0388   -5.5768    0.0000 C   0  0  0  0  0  0  0  0  0  0  0  0
   10.3699   -3.9434    0.0000 O   0  0  0  0  0  0  0  0  0  0  0  0
   11.7806   -4.7683    0.0000 O   0  0  0  0  0  0  0  0  0  0  0  0
   11.0794   -3.5309    0.0000 C   0  0  0  0  0  0  0  0  0  0  0  0
    8.9345   -3.8939    0.0000 C   0  0  0  0  0  0  0  0  0  0  0  0
    6.0470   -3.8362    0.0000 O   0  0  0  0  0  0  0  0  0  0  0  0
    7.4743   -3.9434    0.0000 C   0  0  0  0  0  0  0  0  0  0  0  0
   12.5066   -4.3641    0.0000 C   0  0  0  0  0  0  0  0  0  0  0  0
   11.7806   -3.1101    0.0000 C   0  0  0  0  0  0  0  0  0  0  0  0
    8.1672   -4.3641    0.0000 C   0  0  0  0  0  0  0  0  0  0  0  0
    5.1808   -3.8362    0.0000 C   0  0  0  0  0  0  0  0  0  0  0  0
    7.4743   -3.1101    0.0000 C   0  0  0  0  0  0  0  0  0  0  0  0
   12.5066   -3.5309    0.0000 C   0  0  0  0  0  0  0  0  0  0  0  0
   13.2326   -4.7683    0.0000 C   0  0  0  0  0  0  0  0  0  0  0  0
    5.1808   -2.9287    0.0000 C   0  0  0  0  0  0  0  0  0  0  0  0
    4.4714   -4.1743    0.0000 O   0  0  0  0  0  0  0  0  0  0  0  0
   13.2326   -3.1101    0.0000 C   0  0  0  0  0  0  0  0  0  0  0  0
   13.2326   -5.5933    0.0000 C   0  0  0  0  0  0  0  0  0  0  0  0
   13.9421   -4.3641    0.0000 C   0  0  0  0  0  0  0  0  0  0  0  0
    4.4714   -2.5079    0.0000 C   0  0  0  0  0  0  0  0  0  0  0  0
    3.7619   -3.7537    0.0000 C   0  0  0  0  0  0  0  0  0  0  0  0
   12.5066   -6.0141    0.0000 C   0  0  0  0  0  0  0  0  0  0  0  0
    3.7619   -2.9287    0.0000 C   0  0  0  0  0  0  0  0  0  0  0  0
    4.4714   -1.6747    0.0000 O   0  0  0  0  0  0  0  0  0  0  0  0
    3.0359   -4.1743    0.0000 C   0  0  0  0  0  0  0  0  0  0  0  0
    3.0359   -2.5079    0.0000 O   0  0  0  0  0  0  0  0  0  0  0  0
    5.1808   -1.2540    0.0000 C   0  0  0  0  0  0  0  0  0  0  0  0
    2.1284   -2.4997    0.0000 C   0  0  0  0  0  0  0  0  0  0  0  0
    2.1284   -1.6582    0.0000 C   0  0  0  0  0  0  0  0  0  0  0  0
    1.4189   -2.9122    0.0000 O   0  0  0  0  0  0  0  0  0  0  0  0
    1.4189   -1.2457    0.0000 C   0  0  0  0  0  0  0  0  0  0  0  0
    0.6930   -2.4997    0.0000 C   0  0  0  0  0  0  0  0  0  0  0  0
    0.6930   -1.6582    0.0000 C   0  0  0  0  0  0  0  0  0  0  0  0
    1.4189   -0.4207    0.0000 O   0  0  0  0  0  0  0  0  0  0  0  0
    0.0000   -2.9122    0.0000 C   0  0  0  0  0  0  0  0  0  0  0  0
    0.0000   -1.2540    0.0000 O   0  0  0  0  0  0  0  0  0  0  0  0
    2.1284    0.0000    0.0000 C   0  0  0  0  0  0  0  0  0  0  0  0
  1  2  1  0
  1  3  1  0
  1  4  1  0
  1  5  1  6
  2  6  1  1
  2  7  1  0
  3  8  1  0
  3  9  1  6
  4 10  1  0
  4 11  2  0
  6 10  1  0
  7 12  1  0
  7 13  1  1
  8 14  1  0
  8 15  2  0
  9 12  2  0
 11 16  1  0
 12 17  1  0
 18 14  1  0
 16 19  2  0
 18 20  1  1
 18 21  1  0
 19 22  1  0
 23 20  1  1
 21 24  1  0
 22 25  1  0
 22 26  1  6
 23 27  1  0
 23 28  1  0
 23 29  1  0
 24 30  1  1
 24 27  1  0
 25 31  1  6
 25 32  1  0
 33 28  1  1
 29 34  2  0
 30 35  1  0
 36 31  1  6
 32 37  1  0
 32 35  2  0
 33 38  1  0
 33 39  1  0
 34 38  1  0
 36 40  1  0
 36 41  1  0
 38 42  1  6
 39 43  1  0
 39 44  1  1
 40 45  1  0
 41 46  1  0
 43 47  1  0
 45 48  1  0
 45 49  1  1
 46 50  1  1
 46 48  1  0
 48 51  1  6
 49 52  1  0
 53 51  1  6
 53 54  1  0
 53 55  1  0
 54 56  1  0
 55 57  1  0
 56 58  1  0
 56 59  1  1
 57 60  1  1
 57 58  1  0
 58 61  1  6
 59 62  1  0
M  END
>  <Formula>  (481) 
C48H72O14

>  <FW>  (481) 
873.0769

>  <DSSTox_CID>  (481) 
3892

>  <NR-Aromatase>  (481) 
0

>  <NR-AR>  (481) 
0

>  <NR-AR-LBD>  (481) 
0

>  <NR-ER>  (481) 
0

>  <NR-ER-LBD>  (481) 
0

>  <NR-AhR>  (481) 
0

>  <SR-ATAD5>  (481) 
0

>  <SR-MMP>  (481) 
1

>  <SR-p53>  (481) 
0

$$$$
NCGC00016943-01
     RDKit          2D

 34 37  0  0  1  0  0  0  0  0999 V2000
    2.1451   -3.9445    0.0000 C   0  0  0  0  0  0  0  0  0  0  0  0
    2.1451   -4.7931    0.0000 C   0  0  0  0  0  0  0  0  0  0  0  0
    1.4301   -3.5437    0.0000 C   0  0  0  0  0  0  0  0  0  0  0  0
    1.4301   -5.2017    0.0000 C   0  0  0  0  0  0  0  0  0  0  0  0
    0.7150   -3.9445    0.0000 C   0  0  0  0  0  0  0  0  0  0  0  0
    0.7150   -4.7931    0.0000 C   0  0  0  0  0  0  0  0  0  0  0  0
    2.8522   -3.5437    0.0000 C   0  0  0  0  0  0  0  0  0  0  0  0
    3.5673   -3.9681    0.0000 C   0  0  0  0  0  0  0  0  0  0  0  0
    2.8522   -5.2017    0.0000 C   0  0  0  0  0  0  0  0  0  0  0  0
    3.5673   -4.7931    0.0000 C   0  0  0  0  0  0  0  0  0  0  0  0
    2.8522   -2.7108    0.0000 C   0  0  0  0  0  0  0  0  0  0  0  0
    3.5673   -2.3101    0.0000 C   0  0  0  0  0  0  0  0  0  0  0  0
    4.2980   -3.5437    0.0000 C   0  0  0  0  0  0  0  0  0  0  0  0
    4.2980   -2.7108    0.0000 C   0  0  0  0  0  0  0  0  0  0  0  0
    5.0759   -3.7952    0.0000 C   0  0  0  0  0  0  0  0  0  0  0  0
    5.5631   -3.1430    0.0000 C   0  0  0  0  0  0  0  0  0  0  0  0
    5.0759   -2.4672    0.0000 C   0  0  0  0  0  0  0  0  0  0  0  0
    0.0000   -5.2017    0.0000 O   0  0  0  0  0  0  0  0  0  0  0  0
    2.1451   -3.1430    0.0000 C   0  0  0  0  0  0  0  0  0  0  0  0
    2.8522   -6.0267    0.0000 F   0  0  0  0  0  0  0  0  0  0  0  0
    2.8522   -4.3766    0.0000 F   0  0  0  0  0  0  0  0  0  0  0  0
    2.1451   -2.3101    0.0000 O   0  0  0  0  0  0  0  0  0  0  0  0
    4.2980   -1.8858    0.0000 C   0  0  0  0  0  0  0  0  0  0  0  0
    5.0759   -1.6343    0.0000 C   0  0  0  0  0  0  0  0  0  0  0  0
    5.7910   -1.2101    0.0000 O   0  0  0  0  0  0  0  0  0  0  0  0
    4.3531   -1.2336    0.0000 S   0  0  0  0  0  0  0  0  0  0  0  0
    4.3531   -0.4007    0.0000 C   0  0  0  0  0  0  0  0  0  0  0  0
    3.6301    0.0000    0.0000 F   0  0  0  0  0  0  0  0  0  0  0  0
    5.7910   -2.0351    0.0000 O   0  0  0  0  0  0  0  0  0  0  0  0
    6.6160   -2.0351    0.0000 C   0  0  0  0  0  0  0  0  0  0  0  0
    6.3881   -3.1430    0.0000 C   0  0  0  0  0  0  0  0  0  0  0  0
    7.0246   -1.3358    0.0000 C   0  0  0  0  0  0  0  0  0  0  0  0
    7.0246   -2.7580    0.0000 O   0  0  0  0  0  0  0  0  0  0  0  0
    7.8575   -1.3358    0.0000 C   0  0  0  0  0  0  0  0  0  0  0  0
  1  3  1  0
  1  7  1  0
  1  2  1  0
  1 19  1  1
  2  4  2  0
  2  9  1  0
  3  5  2  0
  4  6  1  0
  5  6  1  0
  6 18  2  0
  7 11  1  0
  7  8  1  0
  7 21  1  6
  8 10  1  0
  8 13  1  0
  9 10  1  0
  9 20  1  6
 11 12  1  0
 11 22  1  1
 12 14  1  0
 13 15  1  1
 13 14  1  0
 14 17  1  0
 14 23  1  1
 15 16  1  0
 16 17  1  0
 16 31  1  6
 17 24  1  0
 17 29  1  6
 24 25  2  0
 24 26  1  0
 26 27  1  0
 27 28  1  0
 29 30  1  0
 30 32  1  0
 30 33  2  0
 32 34  1  0
M  END
>  <Formula>  (482) 
C25H31F3O5S

>  <FW>  (482) 
500.5708

>  <DSSTox_CID>  (482) 
25511

>  <NR-AR>  (482) 
1

>  <NR-AR-LBD>  (482) 
0

>  <NR-ER>  (482) 
0

>  <NR-ER-LBD>  (482) 
0

>  <NR-PPAR-gamma>  (482) 
0

>  <SR-ATAD5>  (482) 
0

>  <SR-MMP>  (482) 
1

>  <SR-p53>  (482) 
0

$$$$
NCGC00092314-01
     RDKit          2D

 23 26  0  0  1  0  0  0  0  0999 V2000
    2.3580   -1.6383    0.0000 C   0  0  0  0  0  0  0  0  0  0  0  0
    2.3580   -2.4516    0.0000 C   0  0  0  0  0  0  0  0  0  0  0  0
    3.0601   -1.2287    0.0000 C   0  0  0  0  0  0  0  0  0  0  0  0
    1.6500   -1.2287    0.0000 C   0  0  0  0  0  0  0  0  0  0  0  0
    3.1420   -2.6623    0.0000 N   0  0  0  0  0  0  0  0  0  0  0  0
    1.6500   -2.8671    0.0000 N   0  0  0  0  0  0  0  0  0  0  0  0
    3.6394   -1.7963    0.0000 C   0  0  0  0  0  0  0  0  0  0  0  0
    3.0601   -0.4037    0.0000 C   0  0  0  0  0  0  0  0  0  0  0  0
    1.6500   -0.4037    0.0000 N   0  0  0  0  0  0  0  0  0  0  0  0
    0.9304   -1.6383    0.0000 N   0  0  0  0  0  0  0  0  0  0  0  0
    0.9304   -2.4516    0.0000 C   0  0  0  0  0  0  0  0  0  0  0  0
    2.3580    0.0000    0.0000 N   0  0  0  0  0  0  0  0  0  0  0  0
    3.7681    0.0000    0.0000 N   0  0  0  0  0  0  0  0  0  0  0  0
    0.9304    0.0000    0.0000 C   0  0  0  0  0  0  0  0  0  0  0  0
    3.1245   -4.1894    0.0000 C   0  0  0  0  0  0  0  0  0  0  0  0
    2.3580   -3.6394    0.0000 O   0  0  0  0  0  0  0  0  0  0  0  0
    2.8261   -5.0847    0.0000 C   0  0  0  0  0  0  0  0  0  0  0  0
    1.5974   -4.1894    0.0000 C   0  0  0  0  0  0  0  0  0  0  0  0
    1.8841   -5.0847    0.0000 C   0  0  0  0  0  0  0  0  0  0  0  0
    3.3878   -5.8511    0.0000 O   0  0  0  0  0  0  0  0  0  0  0  0
    0.6963   -3.8968    0.0000 C   0  0  0  0  0  0  0  0  0  0  0  0
    1.3341   -5.8511    0.0000 O   0  0  0  0  0  0  0  0  0  0  0  0
    0.0000   -4.5346    0.0000 O   0  0  0  0  0  0  0  0  0  0  0  0
  1  2  1  0
  1  3  1  0
  1  4  2  0
  2  5  1  0
  2  6  2  0
  3  7  2  0
  3  8  1  0
  4  9  1  0
  4 10  1  0
  5  7  1  0
 15  5  1  1
  6 11  1  0
  8 12  2  0
  8 13  1  0
  9 14  1  0
  9 12  1  0
 10 11  2  0
 15 16  1  0
 15 17  1  0
 16 18  1  0
 17 19  1  0
 17 20  1  6
 18 21  1  1
 18 19  1  0
 19 22  1  6
 21 23  1  0
M  END
>  <Formula>  (483) 
C13H16N6O4

>  <FW>  (483) 
320.3039

>  <DSSTox_CID>  (483) 
25743

>  <NR-Aromatase>  (483) 
1

>  <NR-AR>  (483) 
0

>  <NR-AR-LBD>  (483) 
0

>  <NR-ER-LBD>  (483) 
0

>  <NR-PPAR-gamma>  (483) 
0

>  <NR-AhR>  (483) 
1

>  <SR-ATAD5>  (483) 
0

>  <SR-MMP>  (483) 
1

>  <SR-p53>  (483) 
0

$$$$
NCGC00163158-01
     RDKit          2D

 25 28  0  0  1  0  0  0  0  0999 V2000
    2.1288   -3.2942    0.0000 C   0  0  0  0  0  0  0  0  0  0  0  0
    2.1288   -4.9442    0.0000 C   0  0  0  0  0  0  0  0  0  0  0  0
    2.8154   -3.7211    0.0000 C   0  0  0  0  0  0  0  0  0  0  0  0
    1.4019   -3.7211    0.0000 C   0  0  0  0  0  0  0  0  0  0  0  0
    3.5308   -3.2942    0.0000 N   0  0  0  0  0  0  0  0  0  0  0  0
    1.4019   -4.5461    0.0000 C   0  0  0  0  0  0  0  0  0  0  0  0
    3.5538   -0.8481    0.0000 C   0  0  0  0  0  0  0  0  0  0  0  0
    2.8154   -4.5461    0.0000 C   0  0  0  0  0  0  0  0  0  0  0  0
    2.1288   -2.4865    0.0000 C   0  0  0  0  0  0  0  0  0  0  0  0
    2.1288   -5.7692    0.0000 C   0  0  0  0  0  0  0  0  0  0  0  0
    0.7039   -5.7692    0.0000 N   0  0  0  0  0  0  0  0  0  0  0  0
    2.8154   -1.2519    0.0000 N   0  0  0  0  0  0  0  0  0  0  0  0
    2.8154   -2.0769    0.0000 C   0  0  0  0  0  0  0  0  0  0  0  0
    0.7039   -4.9442    0.0000 C   0  0  0  0  0  0  0  0  0  0  0  0
    3.5308   -2.4865    0.0000 C   0  0  0  0  0  0  0  0  0  0  0  0
    4.2577   -1.2635    0.0000 N   0  0  0  0  0  0  0  0  0  0  0  0
    3.5538    0.0000    0.0000 O   0  0  0  0  0  0  0  0  0  0  0  0
    0.7039   -3.2942    0.0000 C   0  0  0  0  0  0  0  0  0  0  0  0
    4.2577   -3.7327    0.0000 C   0  0  0  0  0  0  0  0  0  0  0  0
    0.0000   -3.7211    0.0000 C   0  0  0  0  0  0  0  0  0  0  0  0
    0.0000   -4.5461    0.0000 C   0  0  0  0  0  0  0  0  0  0  0  0
    4.9846   -0.8481    0.0000 C   0  0  0  0  0  0  0  0  0  0  0  0
    4.2577   -2.1000    0.0000 C   0  0  0  0  0  0  0  0  0  0  0  0
    5.7115   -1.2635    0.0000 C   0  0  0  0  0  0  0  0  0  0  0  0
    4.9846   -2.5269    0.0000 C   0  0  0  0  0  0  0  0  0  0  0  0
  1  3  1  0
  1  4  1  0
  1  9  2  0
  2  6  1  0
  2 10  2  0
  2  8  1  0
  3  5  1  0
  3  8  1  1
  4  6  2  0
  4 18  1  0
  5 19  1  0
  5 15  1  0
  6 14  1  0
  7 12  1  0
  7 16  1  0
  7 17  2  0
  9 13  1  0
 10 11  1  0
 11 14  1  0
 13 12  1  1
 13 15  1  0
 14 21  2  0
 16 22  1  0
 16 23  1  0
 18 20  2  0
 20 21  1  0
 22 24  1  0
 23 25  1  0
M  END
>  <Formula>  (484) 
C20H26N4O

>  <FW>  (484) 
338.4466

>  <DSSTox_CID>  (484) 
26320

>  <NR-AR>  (484) 
0

>  <NR-AR-LBD>  (484) 
0

>  <NR-ER>  (484) 
0

>  <NR-ER-LBD>  (484) 
0

>  <NR-PPAR-gamma>  (484) 
0

>  <NR-AhR>  (484) 
1

>  <SR-MMP>  (484) 
1

>  <SR-p53>  (484) 
0

$$$$
NCGC00167492-01
     RDKit          2D

 46 48  0  0  0  0  0  0  0  0999 V2000
    2.1368   -1.2227    0.0000 C   0  0  0  0  0  0  0  0  0  0  0  0
    2.1368   -2.0453    0.0000 C   0  0  0  0  0  0  0  0  0  0  0  0
    2.8566   -2.4795    0.0000 C   0  0  0  0  0  0  0  0  0  0  0  0
    3.5651   -2.0453    0.0000 C   0  0  0  0  0  0  0  0  0  0  0  0
    3.5651   -1.2227    0.0000 C   0  0  0  0  0  0  0  0  0  0  0  0
    2.8566   -0.8227    0.0000 C   0  0  0  0  0  0  0  0  0  0  0  0
    4.2735   -0.8227    0.0000 N   0  0  0  0  0  0  0  0  0  0  0  0
    4.2735    0.0000    0.0000 O   0  0  0  0  0  0  0  0  0  0  0  0
    4.9934   -1.2227    0.0000 O   0  0  0  0  0  0  0  0  0  0  0  0
    2.8566   -3.2908    0.0000 C   0  0  0  0  0  0  0  0  0  0  0  0
    2.1368   -3.7136    0.0000 C   0  0  0  0  0  0  0  0  0  0  0  0
    2.1368   -4.5363    0.0000 C   0  0  0  0  0  0  0  0  0  0  0  0
    2.8566   -4.9477    0.0000 N   0  0  0  0  0  0  0  0  0  0  0  0
    3.5651   -4.5363    0.0000 C   0  0  0  0  0  0  0  0  0  0  0  0
    3.5651   -3.7136    0.0000 C   0  0  0  0  0  0  0  0  0  0  0  0
    1.4169   -4.9477    0.0000 C   0  0  0  0  0  0  0  0  0  0  0  0
    4.2735   -4.9477    0.0000 C   0  0  0  0  0  0  0  0  0  0  0  0
    1.4169   -3.2908    0.0000 C   0  0  0  0  0  0  0  0  0  0  0  0
    0.7084   -3.7136    0.0000 O   0  0  0  0  0  0  0  0  0  0  0  0
    0.0000   -3.2908    0.0000 C   0  0  0  0  0  0  0  0  0  0  0  0
    1.4169   -2.4795    0.0000 O   0  0  0  0  0  0  0  0  0  0  0  0
    4.2735   -3.2680    0.0000 C   0  0  0  0  0  0  0  0  0  0  0  0
    4.2735   -2.4453    0.0000 O   0  0  0  0  0  0  0  0  0  0  0  0
    4.9934   -3.6794    0.0000 O   0  0  0  0  0  0  0  0  0  0  0  0
    5.7019   -3.2680    0.0000 C   0  0  0  0  0  0  0  0  0  0  0  0
    5.2905   -2.5481    0.0000 C   0  0  0  0  0  0  0  0  0  0  0  0
    6.1017   -2.5481    0.0000 C   0  0  0  0  0  0  0  0  0  0  0  0
    6.4103   -3.6679    0.0000 C   0  0  0  0  0  0  0  0  0  0  0  0
    7.1301   -3.2680    0.0000 N   0  0  0  0  0  0  0  0  0  0  0  0
    7.1301   -2.4224    0.0000 C   0  0  0  0  0  0  0  0  0  0  0  0
    7.8386   -3.6679    0.0000 C   0  0  0  0  0  0  0  0  0  0  0  0
    8.5585   -3.2452    0.0000 C   0  0  0  0  0  0  0  0  0  0  0  0
    9.2783   -3.6565    0.0000 C   0  0  0  0  0  0  0  0  0  0  0  0
    9.9982   -3.2452    0.0000 C   0  0  0  0  0  0  0  0  0  0  0  0
    9.2783   -4.4906    0.0000 C   0  0  0  0  0  0  0  0  0  0  0  0
    9.9982   -2.4224    0.0000 C   0  0  0  0  0  0  0  0  0  0  0  0
   10.7181   -1.9996    0.0000 C   0  0  0  0  0  0  0  0  0  0  0  0
   11.4265   -2.4224    0.0000 C   0  0  0  0  0  0  0  0  0  0  0  0
   11.4265   -3.2452    0.0000 C   0  0  0  0  0  0  0  0  0  0  0  0
   10.7181   -3.6565    0.0000 C   0  0  0  0  0  0  0  0  0  0  0  0
    9.9982   -4.9020    0.0000 C   0  0  0  0  0  0  0  0  0  0  0  0
    9.9982   -5.7247    0.0000 C   0  0  0  0  0  0  0  0  0  0  0  0
    9.2783   -6.1475    0.0000 C   0  0  0  0  0  0  0  0  0  0  0  0
    8.5585   -5.7247    0.0000 C   0  0  0  0  0  0  0  0  0  0  0  0
    8.5585   -4.9020    0.0000 C   0  0  0  0  0  0  0  0  0  0  0  0
    6.5017   -4.5249    0.0000 Cl  0  0  0  0  0  0  0  0  0  0  0  0
  1  6  2  0
  1  2  1  0
  2  3  2  0
  3  4  1  0
  3 10  1  0
  4  5  2  0
  5  6  1  0
  5  7  1  0
  7  8  2  0
  7  9  1  0
 10 15  1  0
 10 11  1  0
 11 12  2  0
 11 18  1  0
 12 13  1  0
 12 16  1  0
 13 14  1  0
 14 15  2  0
 14 17  1  0
 15 22  1  0
 18 19  1  0
 18 21  2  0
 19 20  1  0
 22 23  2  0
 22 24  1  0
 24 25  1  0
 25 26  1  0
 25 27  1  0
 25 28  1  0
 28 29  1  0
 29 30  1  0
 29 31  1  0
 31 32  1  0
 32 33  1  0
 33 34  1  0
 33 35  1  0
 34 36  2  0
 34 40  1  0
 35 41  2  0
 35 45  1  0
 36 37  1  0
 37 38  2  0
 38 39  1  0
 39 40  2  0
 41 42  1  0
 42 43  2  0
 43 44  1  0
 44 45  2  0
M  CHG  2   7   1   9  -1
M  END
>  <Formula>  (485) 
C36H42ClN3O6

>  <FW>  (485) 
648.1882 (611.7272+36.4609)

>  <DSSTox_CID>  (485) 
26665

>  <NR-Aromatase>  (485) 
1

>  <NR-AR>  (485) 
0

>  <NR-AR-LBD>  (485) 
0

>  <NR-ER-LBD>  (485) 
0

>  <NR-PPAR-gamma>  (485) 
0

>  <NR-AhR>  (485) 
0

>  <SR-ATAD5>  (485) 
0

>  <SR-MMP>  (485) 
1

>  <SR-p53>  (485) 
0

$$$$
NCGC00254229-01
     RDKit          2D

 32 34  0  0  0  0  0  0  0  0999 V2000
    4.2848   -0.4276    0.0000 C   0  0  0  0  0  0  0  0  0  0  0  0
    4.2848   -1.2463    0.0000 C   0  0  0  0  0  0  0  0  0  0  0  0
    3.5752    0.0000    0.0000 C   0  0  0  0  0  0  0  0  0  0  0  0
    3.5752   -1.6557    0.0000 N   0  0  0  0  0  0  0  0  0  0  0  0
    2.8657   -0.4276    0.0000 C   0  0  0  0  0  0  0  0  0  0  0  0
    2.8657   -1.2463    0.0000 C   0  0  0  0  0  0  0  0  0  0  0  0
    1.4283   -0.4276    0.0000 C   0  0  0  0  0  0  0  0  0  0  0  0
    1.4283   -1.2463    0.0000 C   0  0  0  0  0  0  0  0  0  0  0  0
    0.7187    0.0000    0.0000 N   0  0  0  0  0  0  0  0  0  0  0  0
    0.7187   -1.6557    0.0000 C   0  0  0  0  0  0  0  0  0  0  0  0
    0.0000   -0.4276    0.0000 C   0  0  0  0  0  0  0  0  0  0  0  0
    0.0000   -1.2463    0.0000 C   0  0  0  0  0  0  0  0  0  0  0  0
    2.1469   -1.6557    0.0000 O   0  0  0  0  0  0  0  0  0  0  0  0
    5.0035    0.0000    0.0000 N   0  0  0  0  0  0  0  0  0  0  0  0
    5.7131   -0.4276    0.0000 C   0  0  0  0  0  0  0  0  0  0  0  0
    6.4318    0.0000    0.0000 O   0  0  0  0  0  0  0  0  0  0  0  0
    5.7131   -1.2463    0.0000 N   0  0  0  0  0  0  0  0  0  0  0  0
    6.3863   -1.7285    0.0000 C   0  0  0  0  0  0  0  0  0  0  0  0
    5.0490   -1.7285    0.0000 C   0  0  0  0  0  0  0  0  0  0  0  0
    6.1316   -2.5108    0.0000 C   0  0  0  0  0  0  0  0  0  0  0  0
    5.3128   -2.5108    0.0000 C   0  0  0  0  0  0  0  0  0  0  0  0
    7.1959   -1.5556    0.0000 C   0  0  0  0  0  0  0  0  0  0  0  0
    7.7418   -2.1742    0.0000 C   0  0  0  0  0  0  0  0  0  0  0  0
    6.6774   -3.1295    0.0000 C   0  0  0  0  0  0  0  0  0  0  0  0
    7.4870   -2.9566    0.0000 C   0  0  0  0  0  0  0  0  0  0  0  0
    2.1469    0.0000    0.0000 C   0  0  0  0  0  0  0  0  0  0  0  0
    8.5514   -1.9832    0.0000 C   0  0  0  0  0  0  0  0  0  0  0  0
    9.0973   -2.6109    0.0000 F   0  0  0  0  0  0  0  0  0  0  0  0
    8.8152   -1.2190    0.0000 F   0  0  0  0  0  0  0  0  0  0  0  0
    8.0056   -1.3919    0.0000 F   0  0  0  0  0  0  0  0  0  0  0  0
    8.0420   -3.5662    0.0000 C   0  0  0  0  0  0  0  0  0  0  0  0
    3.7208   -2.7656    0.0000 Cl  0  0  0  0  0  0  0  0  0  0  0  0
  1  2  2  0
  1  3  1  0
  1 14  1  0
  2  4  1  0
  3  5  2  0
  4  6  2  0
  5  6  1  0
  6 13  1  0
  7  8  2  0
  7  9  1  0
  7 26  1  0
  8 10  1  0
  8 13  1  0
  9 11  2  0
 10 12  2  0
 11 12  1  0
 14 15  1  0
 15 16  2  0
 15 17  1  0
 17 18  1  0
 17 19  1  0
 18 22  2  0
 18 20  1  0
 19 21  1  0
 20 21  1  0
 20 24  2  0
 22 23  1  0
 23 25  2  0
 23 27  1  0
 24 25  1  0
 25 31  1  0
 27 28  1  0
 27 29  1  0
 27 30  1  0
M  END
>  <Formula>  (486) 
C22H20ClF3N4O2

>  <FW>  (486) 
464.8680 (428.4071+36.4609)

>  <DSSTox_CID>  (486) 
27322

>  <NR-AR>  (486) 
0

>  <NR-AR-LBD>  (486) 
0

>  <NR-ER-LBD>  (486) 
0

>  <NR-AhR>  (486) 
0

>  <SR-ARE>  (486) 
1

>  <SR-HSE>  (486) 
0

>  <SR-MMP>  (486) 
1

>  <SR-p53>  (486) 
0

$$$$
NCGC00094777-01
     RDKit          2D

 59 63  0  0  1  0  0  0  0  0999 V2000
    3.5660   -4.9218    0.0000 C   0  0  0  0  0  0  0  0  0  0  0  0
    5.7112   -3.7053    0.0000 C   0  0  0  0  0  0  0  0  0  0  0  0
    5.7112   -4.5039    0.0000 C   0  0  0  0  0  0  0  0  0  0  0  0
    2.8695   -4.5039    0.0000 C   0  0  0  0  0  0  0  0  0  0  0  0
    4.2718   -3.7053    0.0000 C   0  0  0  0  0  0  0  0  0  0  0  0
    4.2718   -4.5039    0.0000 C   0  0  0  0  0  0  0  0  0  0  0  0
    2.1359   -5.7298    0.0000 C   0  0  0  0  0  0  0  0  0  0  0  0
    6.4170   -3.2781    0.0000 N   0  0  0  0  0  0  0  0  0  0  0  0
    2.1359   -4.9218    0.0000 O   0  0  0  0  0  0  0  0  0  0  0  0
    4.9961   -3.2781    0.0000 C   0  0  0  0  0  0  0  0  0  0  0  0
    4.9961   -4.9218    0.0000 C   0  0  0  0  0  0  0  0  0  0  0  0
    3.5660   -3.2781    0.0000 C   0  0  0  0  0  0  0  0  0  0  0  0
    3.5660   -5.7298    0.0000 C   0  0  0  0  0  0  0  0  0  0  0  0
    2.8695   -3.7053    0.0000 C   0  0  0  0  0  0  0  0  0  0  0  0
    2.1359   -2.4609    0.0000 C   0  0  0  0  0  0  0  0  0  0  0  0
    6.4170   -2.4609    0.0000 C   0  0  0  0  0  0  0  0  0  0  0  0
    2.8695   -2.0430    0.0000 C   0  0  0  0  0  0  0  0  0  0  0  0
    3.5660   -0.8079    0.0000 C   0  0  0  0  0  0  0  0  0  0  0  0
    2.8695   -1.2351    0.0000 C   0  0  0  0  0  0  0  0  0  0  0  0
    6.4355   -4.9218    0.0000 C   0  0  0  0  0  0  0  0  0  0  0  0
    2.1359   -3.2781    0.0000 C   0  0  0  0  0  0  0  0  0  0  0  0
    7.1320   -6.1476    0.0000 N   0  0  0  0  0  0  0  0  0  0  0  0
    4.2718   -1.2351    0.0000 C   0  0  0  0  0  0  0  0  0  0  0  0
    6.4355   -5.7390    0.0000 N   0  0  0  0  0  0  0  0  0  0  0  0
    7.1227   -2.0430    0.0000 C   0  0  0  0  0  0  0  0  0  0  0  0
    0.7336   -5.7298    0.0000 O   0  0  0  0  0  0  0  0  0  0  0  0
    8.5714   -6.9741    0.0000 N   0  0  0  0  0  0  0  0  0  0  0  0
    0.7336   -4.9218    0.0000 C   0  0  0  0  0  0  0  0  0  0  0  0
    1.4394   -4.5039    0.0000 C   0  0  0  0  0  0  0  0  0  0  0  0
    1.4394   -3.7053    0.0000 C   0  0  0  0  0  0  0  0  0  0  0  0
    6.4170   -0.8079    0.0000 C   0  0  0  0  0  0  0  0  0  0  0  0
    4.2811   -6.1290    0.0000 O   0  0  0  0  0  0  0  0  0  0  0  0
    7.1227   -1.2351    0.0000 C   0  0  0  0  0  0  0  0  0  0  0  0
    5.7112   -2.0430    0.0000 O   0  0  0  0  0  0  0  0  0  0  0  0
    7.1320   -6.9741    0.0000 C   0  0  0  0  0  0  0  0  0  0  0  0
    7.8471   -5.7298    0.0000 C   0  0  0  0  0  0  0  0  0  0  0  0
    4.9961   -0.8079    0.0000 C   0  0  0  0  0  0  0  0  0  0  0  0
    5.7112   -1.2351    0.0000 C   0  0  0  0  0  0  0  0  0  0  0  0
    4.9961   -2.4609    0.0000 O   0  0  0  0  0  0  0  0  0  0  0  0
    4.9961   -5.7390    0.0000 O   0  0  0  0  0  0  0  0  0  0  0  0
    3.5660   -2.4609    0.0000 O   0  0  0  0  0  0  0  0  0  0  0  0
    8.5714   -6.1476    0.0000 C   0  0  0  0  0  0  0  0  0  0  0  0
    7.8471   -7.3920    0.0000 C   0  0  0  0  0  0  0  0  0  0  0  0
    2.1266   -0.8079    0.0000 O   0  0  0  0  0  0  0  0  0  0  0  0
    4.2718   -2.0430    0.0000 O   0  0  0  0  0  0  0  0  0  0  0  0
    2.1359   -6.5376    0.0000 C   0  0  0  0  0  0  0  0  0  0  0  0
    2.8695   -2.8695    0.0000 C   0  0  0  0  0  0  0  0  0  0  0  0
    3.5660    0.0000    0.0000 C   0  0  0  0  0  0  0  0  0  0  0  0
    0.7150   -3.2781    0.0000 O   0  0  0  0  0  0  0  0  0  0  0  0
    9.2865   -7.3920    0.0000 C   0  0  0  0  0  0  0  0  0  0  0  0
    7.8471   -2.4609    0.0000 C   0  0  0  0  0  0  0  0  0  0  0  0
    4.9961    0.0000    0.0000 C   0  0  0  0  0  0  0  0  0  0  0  0
    0.0000   -3.7053    0.0000 C   0  0  0  0  0  0  0  0  0  0  0  0
    3.6031   -1.6251    0.0000 C   0  0  0  0  0  0  0  0  0  0  0  0
    1.4115   -2.0059    0.0000 O   0  0  0  0  0  0  0  0  0  0  0  0
    0.5665   -2.0059    0.0000 C   0  0  0  0  0  0  0  0  0  0  0  0
    0.1300   -1.2815    0.0000 O   0  0  0  0  0  0  0  0  0  0  0  0
    0.1578   -2.7581    0.0000 C   0  0  0  0  0  0  0  0  0  0  0  0
    2.1359   -4.1232    0.0000 C   0  0  0  0  0  0  0  0  0  0  0  0
  1  4  2  0
  1  6  1  0
  1 13  1  0
  2  3  1  0
  2  8  1  0
  2 10  2  0
  3 11  2  0
  3 20  1  0
  4  9  1  0
  4 14  1  0
  5  6  2  0
  5 10  1  0
  5 12  1  0
  6 11  1  0
  7 13  1  0
  7 26  1  0
  7 46  1  6
  7  9  1  0
  8 16  1  0
 10 39  1  0
 11 40  1  0
 12 41  1  0
 12 14  2  0
 13 32  2  0
 14 47  1  0
 15 21  1  0
 15 17  1  0
 15 55  1  1
 16 25  1  0
 16 34  2  0
 17 19  1  0
 17 54  1  1
 18 19  1  0
 18 23  1  0
 18 48  1  6
 19 44  1  6
 20 24  2  0
 21 30  1  0
 21 59  1  6
 22 24  1  0
 22 35  1  0
 22 36  1  0
 23 45  1  6
 23 37  1  0
 25 33  2  0
 25 51  1  0
 26 28  1  0
 27 42  1  0
 27 50  1  0
 27 43  1  0
 28 29  2  0
 29 30  1  0
 30 49  1  6
 31 33  1  0
 31 38  2  0
 35 43  1  0
 36 42  1  0
 37 38  1  0
 37 52  1  1
 49 53  1  0
 55 56  1  0
 56 57  2  0
 56 58  1  0
M  END
>  <Formula>  (487) 
C43H58N4O12

>  <FW>  (487) 
822.9402

>  <DSSTox_CID>  (487) 
1244

>  <NR-AR>  (487) 
0

>  <NR-AR-LBD>  (487) 
0

>  <NR-ER>  (487) 
0

>  <NR-ER-LBD>  (487) 
0

>  <NR-AhR>  (487) 
0

>  <SR-ATAD5>  (487) 
0

>  <SR-MMP>  (487) 
1

>  <SR-p53>  (487) 
0

$$$$
NCGC00254070-01
     RDKit          2D

 31 34  0  0  0  0  0  0  0  0999 V2000
    3.1406   -3.7865    0.0000 N   0  0  0  0  0  0  0  0  0  0  0  0
    3.8026   -3.2940    0.0000 C   0  0  0  0  0  0  0  0  0  0  0  0
    3.3828   -4.5696    0.0000 N   0  0  0  0  0  0  0  0  0  0  0  0
    4.4727   -3.7865    0.0000 C   0  0  0  0  0  0  0  0  0  0  0  0
    4.2144   -4.5696    0.0000 C   0  0  0  0  0  0  0  0  0  0  0  0
    3.8026   -2.4705    0.0000 C   0  0  0  0  0  0  0  0  0  0  0  0
    3.0922   -2.0668    0.0000 C   0  0  0  0  0  0  0  0  0  0  0  0
    4.5212   -2.0668    0.0000 C   0  0  0  0  0  0  0  0  0  0  0  0
    3.0922   -1.2434    0.0000 C   0  0  0  0  0  0  0  0  0  0  0  0
    4.5212   -1.2434    0.0000 C   0  0  0  0  0  0  0  0  0  0  0  0
    3.8026   -0.8235    0.0000 C   0  0  0  0  0  0  0  0  0  0  0  0
    2.3575   -3.5282    0.0000 C   0  0  0  0  0  0  0  0  0  0  0  0
    1.7358   -4.0852    0.0000 C   0  0  0  0  0  0  0  0  0  0  0  0
    2.1879   -2.7208    0.0000 C   0  0  0  0  0  0  0  0  0  0  0  0
    0.9527   -3.8269    0.0000 C   0  0  0  0  0  0  0  0  0  0  0  0
    1.3967   -2.4624    0.0000 C   0  0  0  0  0  0  0  0  0  0  0  0
    0.7831   -3.0195    0.0000 C   0  0  0  0  0  0  0  0  0  0  0  0
    3.8026    0.0000    0.0000 Br  0  0  0  0  0  0  0  0  0  0  0  0
    0.0000   -2.7612    0.0000 Cl  0  0  0  0  0  0  0  0  0  0  0  0
    1.9054   -4.8845    0.0000 Cl  0  0  0  0  0  0  0  0  0  0  0  0
    5.2559   -3.5282    0.0000 C   0  0  0  0  0  0  0  0  0  0  0  0
    5.8694   -4.0852    0.0000 C   0  0  0  0  0  0  0  0  0  0  0  0
    4.6988   -5.2317    0.0000 C   0  0  0  0  0  0  0  0  0  0  0  0
    4.3597   -5.9906    0.0000 N   0  0  0  0  0  0  0  0  0  0  0  0
    5.5223   -5.1429    0.0000 O   0  0  0  0  0  0  0  0  0  0  0  0
    4.8441   -6.6526    0.0000 N   0  0  0  0  0  0  0  0  0  0  0  0
    5.6676   -6.5638    0.0000 C   0  0  0  0  0  0  0  0  0  0  0  0
    4.5050   -7.4115    0.0000 C   0  0  0  0  0  0  0  0  0  0  0  0
    6.1440   -7.2419    0.0000 C   0  0  0  0  0  0  0  0  0  0  0  0
    4.9975   -8.0735    0.0000 C   0  0  0  0  0  0  0  0  0  0  0  0
    5.8210   -7.9847    0.0000 C   0  0  0  0  0  0  0  0  0  0  0  0
  1  2  1  0
  1  3  1  0
  1 12  1  0
  2  4  2  0
  2  6  1  0
  3  5  2  0
  4  5  1  0
  4 21  1  0
  5 23  1  0
  6  7  2  0
  6  8  1  0
  7  9  1  0
  8 10  2  0
  9 11  2  0
 10 11  1  0
 11 18  1  0
 12 13  2  0
 12 14  1  0
 13 15  1  0
 13 20  1  0
 14 16  2  0
 15 17  2  0
 16 17  1  0
 17 19  1  0
 21 22  1  0
 23 24  1  0
 23 25  2  0
 24 26  1  0
 26 27  1  0
 26 28  1  0
 27 29  1  0
 28 30  1  0
 29 31  1  0
 30 31  1  0
M  END
>  <Formula>  (488) 
C23H23BrCl2N4O

>  <FW>  (488) 
522.2649

>  <DSSTox_CID>  (488) 
27357

>  <NR-Aromatase>  (488) 
1

>  <NR-AR>  (488) 
0

>  <NR-ER>  (488) 
1

>  <NR-ER-LBD>  (488) 
0

>  <NR-AhR>  (488) 
0

>  <SR-ARE>  (488) 
1

>  <SR-ATAD5>  (488) 
0

>  <SR-HSE>  (488) 
0

>  <SR-MMP>  (488) 
1

$$$$
NCGC00167452-01
     RDKit          2D

 24 26  0  0  0  0  0  0  0  0999 V2000
    2.8652   -2.5079    0.0000 C   0  0  0  0  0  0  0  0  0  0  0  0
    3.5728   -2.0956    0.0000 C   0  0  0  0  0  0  0  0  0  0  0  0
    2.8652   -3.3392    0.0000 C   0  0  0  0  0  0  0  0  0  0  0  0
    2.1506   -2.0956    0.0000 N   0  0  0  0  0  0  0  0  0  0  0  0
    4.2874   -2.5079    0.0000 C   0  0  0  0  0  0  0  0  0  0  0  0
    5.0020   -2.0956    0.0000 N   0  0  0  0  0  0  0  0  0  0  0  0
    3.5728   -3.7515    0.0000 C   0  0  0  0  0  0  0  0  0  0  0  0
    4.2874   -3.3392    0.0000 C   0  0  0  0  0  0  0  0  0  0  0  0
    3.5728   -1.2505    0.0000 C   0  0  0  0  0  0  0  0  0  0  0  0
    2.1506   -3.7515    0.0000 O   0  0  0  0  0  0  0  0  0  0  0  0
    5.0020   -1.2505    0.0000 C   0  0  0  0  0  0  0  0  0  0  0  0
    4.2874   -0.8520    0.0000 C   0  0  0  0  0  0  0  0  0  0  0  0
    1.4292   -2.5079    0.0000 C   0  0  0  0  0  0  0  0  0  0  0  0
    5.7303   -0.8382    0.0000 C   0  0  0  0  0  0  0  0  0  0  0  0
    1.4292   -3.3392    0.0000 C   0  0  0  0  0  0  0  0  0  0  0  0
    5.0089   -3.7584    0.0000 O   0  0  0  0  0  0  0  0  0  0  0  0
    5.7303    0.0000    0.0000 O   0  0  0  0  0  0  0  0  0  0  0  0
    2.8445   -0.8382    0.0000 O   0  0  0  0  0  0  0  0  0  0  0  0
    6.4449   -1.2505    0.0000 O   0  0  0  0  0  0  0  0  0  0  0  0
    0.7145   -2.0956    0.0000 C   0  0  0  0  0  0  0  0  0  0  0  0
    0.7145   -3.7515    0.0000 C   0  0  0  0  0  0  0  0  0  0  0  0
    0.0000   -2.5079    0.0000 C   0  0  0  0  0  0  0  0  0  0  0  0
    0.0000   -3.3392    0.0000 C   0  0  0  0  0  0  0  0  0  0  0  0
    6.8708   -0.4604    0.0000 Na  0  0  0  0  0 15  0  0  0  0  0  0
  1  2  1  0
  1  3  1  0
  1  4  2  0
  2  5  2  0
  2  9  1  0
  3  7  2  0
  3 10  1  0
  4 13  1  0
  5  6  1  0
  5  8  1  0
  6 11  2  0
  7  8  1  0
  8 16  2  0
  9 12  2  0
  9 18  1  0
 10 15  1  0
 11 12  1  0
 11 14  1  0
 13 15  2  0
 13 20  1  0
 14 17  2  0
 14 19  1  0
 15 21  1  0
 20 22  2  0
 21 23  2  0
 22 23  1  0
M  CHG  2  19  -1  24   1
M  END
>  <Formula>  (489) 
C16H7N2NaO5

>  <FW>  (489) 
330.2269 (307.2377+22.9892)

>  <DSSTox_CID>  (489) 
26637

>  <NR-Aromatase>  (489) 
0

>  <NR-AR>  (489) 
0

>  <NR-AR-LBD>  (489) 
0

>  <NR-ER>  (489) 
0

>  <NR-ER-LBD>  (489) 
0

>  <NR-PPAR-gamma>  (489) 
0

>  <SR-ATAD5>  (489) 
0

>  <SR-MMP>  (489) 
1

>  <SR-p53>  (489) 
0

$$$$
NCGC00182028-01
     RDKit          2D

 42 45  0  0  1  0  0  0  0  0999 V2000
    2.0584   -1.6399    0.0000 O   0  0  0  0  0  0  0  0  0  0  0  0
    2.0584   -2.4655    0.0000 C   0  0  0  0  0  0  0  0  0  0  0  0
    2.7709   -2.8840    0.0000 C   0  0  0  0  0  0  0  0  0  0  0  0
    3.4834   -2.4655    0.0000 C   0  0  0  0  0  0  0  0  0  0  0  0
    3.4834   -1.6399    0.0000 C   0  0  0  0  0  0  0  0  0  0  0  0
    2.7709   -1.2328    0.0000 C   0  0  0  0  0  0  0  0  0  0  0  0
    1.6399   -3.1667    0.0000 C   0  0  0  0  0  0  0  0  0  0  0  0
    2.0584   -3.8906    0.0000 C   0  0  0  0  0  0  0  0  0  0  0  0
    1.6399   -4.6030    0.0000 C   0  0  0  0  0  0  0  0  0  0  0  0
    1.2441   -2.4655    0.0000 C   0  0  0  0  0  0  0  0  0  0  0  0
    0.8256   -3.1667    0.0000 C   0  0  0  0  0  0  0  0  0  0  0  0
    0.0000   -3.1667    0.0000 C   0  0  0  0  0  0  0  0  0  0  0  0
    0.8256   -4.6030    0.0000 C   0  0  0  0  0  0  0  0  0  0  0  0
    0.4185   -5.3155    0.0000 C   0  0  0  0  0  0  0  0  0  0  0  0
    0.8256   -6.0281    0.0000 C   0  0  0  0  0  0  0  0  0  0  0  0
    1.6399   -6.0281    0.0000 C   0  0  0  0  0  0  0  0  0  0  0  0
    2.0584   -5.3155    0.0000 C   0  0  0  0  0  0  0  0  0  0  0  0
    2.7709   -0.4185    0.0000 O   0  0  0  0  0  0  0  0  0  0  0  0
    4.1959   -2.8840    0.0000 O   0  0  0  0  0  0  0  0  0  0  0  0
    4.1959   -1.2328    0.0000 C   0  0  0  0  0  0  0  0  0  0  0  0
    4.9084   -1.6399    0.0000 C   0  0  0  0  0  0  0  0  0  0  0  0
    4.1959   -0.4185    0.0000 C   0  0  0  0  0  0  0  0  0  0  0  0
    4.9084    0.0000    0.0000 C   0  0  0  0  0  0  0  0  0  0  0  0
    4.9084   -2.4655    0.0000 C   0  0  0  0  0  0  0  0  0  0  0  0
    5.6096   -2.8840    0.0000 C   0  0  0  0  0  0  0  0  0  0  0  0
    6.3335   -2.4655    0.0000 C   0  0  0  0  0  0  0  0  0  0  0  0
    6.3335   -1.6399    0.0000 C   0  0  0  0  0  0  0  0  0  0  0  0
    5.6096   -1.2328    0.0000 C   0  0  0  0  0  0  0  0  0  0  0  0
    7.0346   -1.2328    0.0000 N   0  0  0  0  0  0  0  0  0  0  0  0
    7.7584   -1.6399    0.0000 S   0  0  0  0  0  0  0  0  0  0  0  0
    8.4597   -2.0584    0.0000 C   0  0  0  0  0  0  0  0  0  0  0  0
    8.4597   -2.8840    0.0000 C   0  0  0  0  0  0  0  0  0  0  0  0
    9.1835   -3.2798    0.0000 C   0  0  0  0  0  0  0  0  0  0  0  0
    9.8847   -2.8840    0.0000 C   0  0  0  0  0  0  0  0  0  0  0  0
    9.8847   -2.0584    0.0000 C   0  0  0  0  0  0  0  0  0  0  0  0
    9.1835   -1.6399    0.0000 N   0  0  0  0  0  0  0  0  0  0  0  0
   10.6085   -3.2798    0.0000 C   0  0  0  0  0  0  0  0  0  0  0  0
   11.3097   -3.6983    0.0000 F   0  0  0  0  0  0  0  0  0  0  0  0
   10.1900   -3.9923    0.0000 F   0  0  0  0  0  0  0  0  0  0  0  0
   11.0043   -2.5786    0.0000 F   0  0  0  0  0  0  0  0  0  0  0  0
    7.3400   -2.3637    0.0000 O   0  0  0  0  0  0  0  0  0  0  0  0
    8.1656   -0.9387    0.0000 O   0  0  0  0  0  0  0  0  0  0  0  0
  1  2  1  0
  1  6  1  0
  2 10  1  6
  2  7  1  0
  2  3  1  0
  3  4  1  0
  4  5  2  0
  4 19  1  0
  5  6  1  0
  5 20  1  0
  6 18  2  0
  7  8  1  0
  8  9  1  0
  9 13  2  0
  9 17  1  0
 10 11  1  0
 11 12  1  0
 13 14  1  0
 14 15  2  0
 15 16  1  0
 16 17  2  0
 20 21  1  0
 20 22  1  6
 21 24  2  0
 21 28  1  0
 22 23  1  0
 24 25  1  0
 25 26  2  0
 26 27  1  0
 27 28  2  0
 27 29  1  0
 29 30  1  0
 30 31  1  0
 30 41  2  0
 30 42  2  0
 31 32  2  0
 31 36  1  0
 32 33  1  0
 33 34  2  0
 34 35  1  0
 34 37  1  0
 35 36  2  0
 37 38  1  0
 37 39  1  0
 37 40  1  0
M  END
>  <Formula>  (490) 
C31H33F3N2O5S

>  <FW>  (490) 
602.6643

>  <DSSTox_CID>  (490) 
28548

>  <NR-Aromatase>  (490) 
0

>  <NR-AR>  (490) 
0

>  <NR-AR-LBD>  (490) 
0

>  <NR-ER>  (490) 
0

>  <NR-ER-LBD>  (490) 
0

>  <NR-AhR>  (490) 
0

>  <SR-ATAD5>  (490) 
0

>  <SR-MMP>  (490) 
1

>  <SR-p53>  (490) 
0

$$$$
NCGC00160407-01
     RDKit          2D

 23 25  0  0  0  0  0  0  0  0999 V2000
    4.2465   -4.1251    0.0000 C   0  0  0  0  0  0  0  0  0  0  0  0
    3.5303   -3.7094    0.0000 N   0  0  0  0  0  0  0  0  0  0  0  0
    3.5303   -2.8843    0.0000 C   0  0  0  0  0  0  0  0  0  0  0  0
    4.2465   -2.4750    0.0000 C   0  0  0  0  0  0  0  0  0  0  0  0
    4.9501   -2.8843    0.0000 O   0  0  0  0  0  0  0  0  0  0  0  0
    4.2465   -1.6500    0.0000 N   0  0  0  0  0  0  0  0  0  0  0  0
    4.9629   -1.2343    0.0000 C   0  0  0  0  0  0  0  0  0  0  0  0
    4.9629   -0.4093    0.0000 C   0  0  0  0  0  0  0  0  0  0  0  0
    5.6791    0.0000    0.0000 C   0  0  0  0  0  0  0  0  0  0  0  0
    6.3954   -0.4093    0.0000 C   0  0  0  0  0  0  0  0  0  0  0  0
    6.3954   -1.2343    0.0000 C   0  0  0  0  0  0  0  0  0  0  0  0
    5.6791   -1.6500    0.0000 N   0  0  0  0  0  0  0  0  0  0  0  0
    2.8140   -2.4750    0.0000 C   0  0  0  0  0  0  0  0  0  0  0  0
    2.8140   -1.6500    0.0000 O   0  0  0  0  0  0  0  0  0  0  0  0
    2.0977   -2.8843    0.0000 C   0  0  0  0  0  0  0  0  0  0  0  0
    2.0977   -3.7094    0.0000 C   0  0  0  0  0  0  0  0  0  0  0  0
    1.3111   -3.9716    0.0000 C   0  0  0  0  0  0  0  0  0  0  0  0
    0.8250   -3.3000    0.0000 C   0  0  0  0  0  0  0  0  0  0  0  0
    0.0000   -3.3000    0.0000 Cl  0  0  0  0  0  0  0  0  0  0  0  0
    1.3111   -2.6349    0.0000 S   0  0  0  0  0  0  0  0  0  0  0  0
    2.8140   -4.1251    0.0000 S   0  0  0  0  0  0  0  0  0  0  0  0
    3.3448   -4.7646    0.0000 O   0  0  0  0  0  0  0  0  0  0  0  0
    2.2896   -4.7646    0.0000 O   0  0  0  0  0  0  0  0  0  0  0  0
  1  2  1  0
  2  3  1  0
  2 21  1  0
  3  4  1  0
  3 13  1  0
  4  5  2  0
  4  6  1  0
  6  7  1  0
  7  8  2  0
  7 12  1  0
  8  9  1  0
  9 10  2  0
 10 11  1  0
 11 12  2  0
 13 14  2  0
 13 15  1  0
 15 16  2  0
 15 20  1  0
 16 17  1  0
 16 21  1  0
 17 18  2  0
 18 19  1  0
 18 20  1  0
 21 22  2  0
 21 23  2  0
M  END
>  <Formula>  (491) 
C13H10ClN3O4S2

>  <FW>  (491) 
371.8192

>  <DSSTox_CID>  (491) 
26133

>  <NR-Aromatase>  (491) 
0

>  <NR-AR>  (491) 
0

>  <NR-ER>  (491) 
0

>  <NR-ER-LBD>  (491) 
0

>  <NR-PPAR-gamma>  (491) 
0

>  <NR-AhR>  (491) 
0

>  <SR-ATAD5>  (491) 
0

>  <SR-MMP>  (491) 
1

>  <SR-p53>  (491) 
0

$$$$
NCGC00260032-01
     RDKit          2D

 40 43  0  0  1  0  0  0  0  0999 V2000
    2.0995   -6.7060    0.0000 O   0  0  0  0  0  0  0  0  0  0  0  0
    2.3816   -5.9304    0.0000 C   0  0  0  0  0  0  0  0  0  0  0  0
    1.8567   -5.3115    0.0000 C   0  0  0  0  0  0  0  0  0  0  0  0
    1.0420   -5.4447    0.0000 O   0  0  0  0  0  0  0  0  0  0  0  0
    2.1387   -4.5281    0.0000 C   0  0  0  0  0  0  0  0  0  0  0  0
    1.3318   -4.3871    0.0000 O   0  0  0  0  0  0  0  0  0  0  0  0
    2.1387   -3.6977    0.0000 C   0  0  0  0  0  0  0  0  0  0  0  0
    2.8594   -3.2982    0.0000 C   0  0  0  0  0  0  0  0  0  0  0  0
    2.8594   -2.4677    0.0000 O   0  0  0  0  0  0  0  0  0  0  0  0
    2.1387   -2.0525    0.0000 C   0  0  0  0  0  0  0  0  0  0  0  0
    1.4258   -2.4677    0.0000 C   0  0  0  0  0  0  0  0  0  0  0  0
    0.7129   -2.0525    0.0000 C   0  0  0  0  0  0  0  0  0  0  0  0
    0.0000   -2.4677    0.0000 N   0  0  0  0  0  0  0  0  0  0  0  0
    0.7129   -1.2300    0.0000 C   0  0  0  0  0  0  0  0  0  0  0  0
    0.0000   -0.8226    0.0000 O   0  0  0  0  0  0  0  0  0  0  0  0
    1.4258   -0.8226    0.0000 C   0  0  0  0  0  0  0  0  0  0  0  0
    1.4258    0.0000    0.0000 C   0  0  0  0  0  0  0  0  0  0  0  0
    2.1387   -1.2300    0.0000 O   0  0  0  0  0  0  0  0  0  0  0  0
    3.5724   -3.6977    0.0000 C   0  0  0  0  0  0  0  0  0  0  0  0
    4.2774   -3.2982    0.0000 C   0  0  0  0  0  0  0  0  0  0  0  0
    4.2774   -2.4677    0.0000 O   0  0  0  0  0  0  0  0  0  0  0  0
    4.9903   -3.6977    0.0000 C   0  0  0  0  0  0  0  0  0  0  0  0
    5.7032   -3.2982    0.0000 C   0  0  0  0  0  0  0  0  0  0  0  0
    5.7032   -2.4677    0.0000 O   0  0  0  0  0  0  0  0  0  0  0  0
    6.4161   -3.6977    0.0000 C   0  0  0  0  0  0  0  0  0  0  0  0
    7.1291   -3.2982    0.0000 C   0  0  0  0  0  0  0  0  0  0  0  0
    7.1291   -2.4677    0.0000 O   0  0  0  0  0  0  0  0  0  0  0  0
    7.8341   -2.0525    0.0000 C   0  0  0  0  0  0  0  0  0  0  0  0
    7.8341   -3.6977    0.0000 C   0  0  0  0  0  0  0  0  0  0  0  0
    7.8341   -4.5281    0.0000 C   0  0  0  0  0  0  0  0  0  0  0  0
    7.1291   -4.9433    0.0000 C   0  0  0  0  0  0  0  0  0  0  0  0
    6.4161   -4.5281    0.0000 C   0  0  0  0  0  0  0  0  0  0  0  0
    5.7032   -4.9433    0.0000 C   0  0  0  0  0  0  0  0  0  0  0  0
    5.7032   -5.7659    0.0000 O   0  0  0  0  0  0  0  0  0  0  0  0
    4.9903   -4.5281    0.0000 C   0  0  0  0  0  0  0  0  0  0  0  0
    4.2774   -4.9433    0.0000 C   0  0  0  0  0  0  0  0  0  0  0  0
    4.2774   -5.7659    0.0000 O   0  0  0  0  0  0  0  0  0  0  0  0
    3.5724   -4.5281    0.0000 C   0  0  0  0  0  0  0  0  0  0  0  0
    2.8594   -4.9433    0.0000 C   0  0  0  0  0  0  0  0  0  0  0  0
    5.9696   -0.3682    0.0000 Cl  0  0  0  0  0  0  0  0  0  0  0  0
  1  2  1  0
  2  3  1  0
  3  4  2  0
  5  3  1  0
  5  6  1  6
  5  7  1  0
  5 39  1  0
  7  8  1  0
  8  9  1  6
  8 19  1  0
 10  9  1  1
 10 11  1  0
 10 18  1  0
 11 12  1  0
 12 13  1  6
 12 14  1  0
 14 15  1  6
 14 16  1  0
 16 17  1  6
 16 18  1  0
 19 20  1  0
 19 38  2  0
 20 21  1  0
 20 22  2  0
 22 23  1  0
 22 35  1  0
 23 24  2  0
 23 25  1  0
 25 26  2  0
 25 32  1  0
 26 27  1  0
 26 29  1  0
 27 28  1  0
 29 30  2  0
 30 31  1  0
 31 32  2  0
 32 33  1  0
 33 34  2  0
 33 35  1  0
 35 36  2  0
 36 37  1  0
 36 38  1  0
 38 39  1  0
M  END
>  <Formula>  (492) 
C27H30ClNO11

>  <FW>  (492) 
579.9802 (543.5193+36.4609)

>  <DSSTox_CID>  (492) 
10636

>  <NR-Aromatase>  (492) 
1

>  <NR-AR>  (492) 
0

>  <NR-AR-LBD>  (492) 
1

>  <NR-ER-LBD>  (492) 
1

>  <NR-AhR>  (492) 
0

>  <SR-ATAD5>  (492) 
1

>  <SR-HSE>  (492) 
0

>  <SR-MMP>  (492) 
1

>  <SR-p53>  (492) 
1

$$$$
NCGC00257277-01
     RDKit          2D

 38 39  0  0  0  0  0  0  0  0999 V2000
    5.4033   -3.0615    0.0000 C   0  0  0  0  0  0  0  0  0  0  0  0
    5.4033   -3.8870    0.0000 C   0  0  0  0  0  0  0  0  0  0  0  0
    6.1231   -4.2900    0.0000 C   0  0  0  0  0  0  0  0  0  0  0  0
    6.8237   -3.8870    0.0000 C   0  0  0  0  0  0  0  0  0  0  0  0
    6.8237   -3.0615    0.0000 C   0  0  0  0  0  0  0  0  0  0  0  0
    6.1231   -2.6489    0.0000 C   0  0  0  0  0  0  0  0  0  0  0  0
    4.6931   -2.6489    0.0000 C   0  0  0  0  0  0  0  0  0  0  0  0
    4.6931   -1.8235    0.0000 O   0  0  0  0  0  0  0  0  0  0  0  0
    3.9829   -3.0615    0.0000 N   0  0  0  0  0  0  0  0  0  0  0  0
    6.1231   -1.8235    0.0000 C   0  0  0  0  0  0  0  0  0  0  0  0
    5.4033   -1.4204    0.0000 O   0  0  0  0  0  0  0  0  0  0  0  0
    6.8237   -1.4204    0.0000 N   0  0  0  0  0  0  0  0  0  0  0  0
    7.5339   -1.8235    0.0000 C   0  0  0  0  0  0  0  0  0  0  0  0
    7.1308   -2.5433    0.0000 C   0  0  0  0  0  0  0  0  0  0  0  0
    8.2537   -2.2362    0.0000 C   0  0  0  0  0  0  0  0  0  0  0  0
    7.9562   -1.1229    0.0000 C   0  0  0  0  0  0  0  0  0  0  0  0
    8.7720   -1.1229    0.0000 S   0  0  0  0  0  0  0  0  0  0  0  0
    8.7720   -0.2975    0.0000 O   0  0  0  0  0  0  0  0  0  0  0  0
    8.7720   -1.9387    0.0000 O   0  0  0  0  0  0  0  0  0  0  0  0
    9.5974   -1.1229    0.0000 C   0  0  0  0  0  0  0  0  0  0  0  0
    7.5339   -2.6489    0.0000 I   0  0  0  0  0  0  0  0  0  0  0  0
    1.8523   -2.6489    0.0000 C   0  0  0  0  0  0  0  0  0  0  0  0
    1.8523   -1.8235    0.0000 C   0  0  0  0  0  0  0  0  0  0  0  0
    2.5529   -1.4204    0.0000 C   0  0  0  0  0  0  0  0  0  0  0  0
    3.2727   -1.8235    0.0000 C   0  0  0  0  0  0  0  0  0  0  0  0
    3.2727   -2.6489    0.0000 C   0  0  0  0  0  0  0  0  0  0  0  0
    2.5529   -3.0615    0.0000 C   0  0  0  0  0  0  0  0  0  0  0  0
    2.5529   -3.8870    0.0000 C   0  0  0  0  0  0  0  0  0  0  0  0
    1.1325   -1.4204    0.0000 C   0  0  0  0  0  0  0  0  0  0  0  0
    0.6910   -2.1018    0.0000 C   0  0  0  0  0  0  0  0  0  0  0  0
    0.3071   -0.8638    0.0000 F   0  0  0  0  0  0  0  0  0  0  0  0
    0.2496   -2.8024    0.0000 F   0  0  0  0  0  0  0  0  0  0  0  0
    1.3724   -2.5529    0.0000 F   0  0  0  0  0  0  0  0  0  0  0  0
    0.0000   -1.6603    0.0000 F   0  0  0  0  0  0  0  0  0  0  0  0
    1.5836   -0.6814    0.0000 C   0  0  0  0  0  0  0  0  0  0  0  0
    1.9771    0.0000    0.0000 F   0  0  0  0  0  0  0  0  0  0  0  0
    2.2650   -1.1037    0.0000 F   0  0  0  0  0  0  0  0  0  0  0  0
    0.8925   -0.2879    0.0000 F   0  0  0  0  0  0  0  0  0  0  0  0
  1  2  2  0
  1  6  1  0
  1  7  1  0
  2  3  1  0
  3  4  2  0
  4  5  1  0
  5  6  2  0
  5 21  1  0
  6 10  1  0
  7  8  2  0
  7  9  1  0
  9 26  1  0
 10 11  2  0
 10 12  1  0
 12 13  1  0
 13 14  1  0
 13 15  1  0
 13 16  1  0
 16 17  1  0
 17 18  2  0
 17 19  2  0
 17 20  1  0
 22 27  2  0
 22 23  1  0
 23 24  2  0
 23 29  1  0
 24 25  1  0
 25 26  2  0
 26 27  1  0
 27 28  1  0
 29 30  1  0
 29 31  1  0
 29 35  1  0
 30 32  1  0
 30 33  1  0
 30 34  1  0
 35 36  1  0
 35 37  1  0
 35 38  1  0
M  END
>  <Formula>  (493) 
C23H22F7IN2O4S

>  <FW>  (493) 
682.3901

>  <DSSTox_CID>  (493) 
27672

>  <NR-Aromatase>  (493) 
0

>  <NR-AR>  (493) 
0

>  <NR-AR-LBD>  (493) 
0

>  <NR-ER-LBD>  (493) 
0

>  <NR-AhR>  (493) 
0

>  <SR-ATAD5>  (493) 
0

>  <SR-HSE>  (493) 
1

>  <SR-MMP>  (493) 
1

>  <SR-p53>  (493) 
0

$$$$
NCGC00259238-01
     RDKit          2D

 23 25  0  0  0  0  0  0  0  0999 V2000
    1.4096   -1.4662    0.0000 C   0  0  0  0  0  0  0  0  0  0  0  0
    1.4096   -2.3021    0.0000 C   0  0  0  0  0  0  0  0  0  0  0  0
    2.1108   -1.0554    0.0000 C   0  0  0  0  0  0  0  0  0  0  0  0
    0.6729   -1.0554    0.0000 C   0  0  0  0  0  0  0  0  0  0  0  0
    2.1108   -2.7412    0.0000 S   0  0  0  0  0  0  0  0  0  0  0  0
    0.6729   -2.7129    0.0000 C   0  0  0  0  0  0  0  0  0  0  0  0
    2.8262   -1.4662    0.0000 C   0  0  0  0  0  0  0  0  0  0  0  0
    2.1108   -0.2125    0.0000 O   0  0  0  0  0  0  0  0  0  0  0  0
    0.0000   -1.4662    0.0000 C   0  0  0  0  0  0  0  0  0  0  0  0
    2.8262   -2.3304    0.0000 N   0  0  0  0  0  0  0  0  0  0  0  0
    2.4933   -3.4425    0.0000 O   0  0  0  0  0  0  0  0  0  0  0  0
    1.6858   -3.4425    0.0000 O   0  0  0  0  0  0  0  0  0  0  0  0
    0.0000   -2.3021    0.0000 C   0  0  0  0  0  0  0  0  0  0  0  0
    3.5558   -1.0554    0.0000 C   0  0  0  0  0  0  0  0  0  0  0  0
    3.5558   -2.7129    0.0000 C   0  0  0  0  0  0  0  0  0  0  0  0
    4.2853   -1.4662    0.0000 N   0  0  0  0  0  0  0  0  0  0  0  0
    3.5558   -0.2125    0.0000 O   0  0  0  0  0  0  0  0  0  0  0  0
    4.9937   -1.0554    0.0000 C   0  0  0  0  0  0  0  0  0  0  0  0
    5.0007   -0.2267    0.0000 N   0  0  0  0  0  0  0  0  0  0  0  0
    5.7515   -1.3033    0.0000 S   0  0  0  0  0  0  0  0  0  0  0  0
    5.7728    0.0000    0.0000 C   0  0  0  0  0  0  0  0  0  0  0  0
    6.2686   -0.6588    0.0000 C   0  0  0  0  0  0  0  0  0  0  0  0
    7.0832   -0.6375    0.0000 C   0  0  0  0  0  0  0  0  0  0  0  0
  1  2  2  0
  1  3  1  0
  1  4  1  0
  2  5  1  0
  2  6  1  0
  3  7  2  0
  3  8  1  0
  4  9  2  0
  5 10  1  0
  5 11  2  0
  5 12  2  0
  6 13  2  0
  7 14  1  0
  7 10  1  0
  9 13  1  0
 10 15  1  0
 14 16  1  0
 14 17  2  0
 16 18  1  0
 18 19  2  0
 18 20  1  0
 19 21  1  0
 20 22  1  0
 21 22  2  0
 22 23  1  0
M  END
>  <Formula>  (494) 
C14H13N3O4S2

>  <FW>  (494) 
351.4007

>  <DSSTox_CID>  (494) 
803

>  <NR-AR>  (494) 
0

>  <NR-AR-LBD>  (494) 
0

>  <NR-ER>  (494) 
0

>  <NR-ER-LBD>  (494) 
0

>  <SR-ATAD5>  (494) 
0

>  <SR-HSE>  (494) 
0

>  <SR-MMP>  (494) 
1

>  <SR-p53>  (494) 
0

$$$$
NCGC00258936-01
     RDKit          2D

 59 63  0  0  1  0  0  0  0  0999 V2000
    3.5660   -4.9218    0.0000 C   0  0  0  0  0  0  0  0  0  0  0  0
    5.7112   -3.7053    0.0000 C   0  0  0  0  0  0  0  0  0  0  0  0
    5.7112   -4.5039    0.0000 C   0  0  0  0  0  0  0  0  0  0  0  0
    2.8695   -4.5039    0.0000 C   0  0  0  0  0  0  0  0  0  0  0  0
    4.2718   -3.7053    0.0000 C   0  0  0  0  0  0  0  0  0  0  0  0
    4.2718   -4.5039    0.0000 C   0  0  0  0  0  0  0  0  0  0  0  0
    2.1359   -5.7298    0.0000 C   0  0  0  0  0  0  0  0  0  0  0  0
    6.4170   -3.2781    0.0000 N   0  0  0  0  0  0  0  0  0  0  0  0
    2.1359   -4.9218    0.0000 O   0  0  0  0  0  0  0  0  0  0  0  0
    4.9961   -3.2781    0.0000 C   0  0  0  0  0  0  0  0  0  0  0  0
    4.9961   -4.9218    0.0000 C   0  0  0  0  0  0  0  0  0  0  0  0
    3.5660   -3.2781    0.0000 C   0  0  0  0  0  0  0  0  0  0  0  0
    3.5660   -5.7298    0.0000 C   0  0  0  0  0  0  0  0  0  0  0  0
    2.8695   -3.7053    0.0000 C   0  0  0  0  0  0  0  0  0  0  0  0
    2.1359   -2.4609    0.0000 C   0  0  0  0  0  0  0  0  0  0  0  0
    6.4170   -2.4609    0.0000 C   0  0  0  0  0  0  0  0  0  0  0  0
    2.8695   -2.0430    0.0000 C   0  0  0  0  0  0  0  0  0  0  0  0
    3.5660   -0.8079    0.0000 C   0  0  0  0  0  0  0  0  0  0  0  0
    2.8695   -1.2351    0.0000 C   0  0  0  0  0  0  0  0  0  0  0  0
    6.4355   -4.9218    0.0000 C   0  0  0  0  0  0  0  0  0  0  0  0
    2.1359   -3.2781    0.0000 C   0  0  0  0  0  0  0  0  0  0  0  0
    7.1320   -6.1476    0.0000 N   0  0  0  0  0  0  0  0  0  0  0  0
    4.2718   -1.2351    0.0000 C   0  0  0  0  0  0  0  0  0  0  0  0
    6.4355   -5.7390    0.0000 N   0  0  0  0  0  0  0  0  0  0  0  0
    7.1227   -2.0430    0.0000 C   0  0  0  0  0  0  0  0  0  0  0  0
    0.7336   -5.7298    0.0000 O   0  0  0  0  0  0  0  0  0  0  0  0
    8.5714   -6.9741    0.0000 N   0  0  0  0  0  0  0  0  0  0  0  0
    0.7336   -4.9218    0.0000 C   0  0  0  0  0  0  0  0  0  0  0  0
    1.4394   -4.5039    0.0000 C   0  0  0  0  0  0  0  0  0  0  0  0
    1.4394   -3.7053    0.0000 C   0  0  0  0  0  0  0  0  0  0  0  0
    6.4170   -0.8079    0.0000 C   0  0  0  0  0  0  0  0  0  0  0  0
    4.2811   -6.1290    0.0000 O   0  0  0  0  0  0  0  0  0  0  0  0
    7.1227   -1.2351    0.0000 C   0  0  0  0  0  0  0  0  0  0  0  0
    5.7112   -2.0430    0.0000 O   0  0  0  0  0  0  0  0  0  0  0  0
    7.1320   -6.9741    0.0000 C   0  0  0  0  0  0  0  0  0  0  0  0
    7.8471   -5.7298    0.0000 C   0  0  0  0  0  0  0  0  0  0  0  0
    4.9961   -0.8079    0.0000 C   0  0  0  0  0  0  0  0  0  0  0  0
    5.7112   -1.2351    0.0000 C   0  0  0  0  0  0  0  0  0  0  0  0
    4.9961   -2.4609    0.0000 O   0  0  0  0  0  0  0  0  0  0  0  0
    4.9961   -5.7390    0.0000 O   0  0  0  0  0  0  0  0  0  0  0  0
    3.5660   -2.4609    0.0000 O   0  0  0  0  0  0  0  0  0  0  0  0
    8.5714   -6.1476    0.0000 C   0  0  0  0  0  0  0  0  0  0  0  0
    7.8471   -7.3920    0.0000 C   0  0  0  0  0  0  0  0  0  0  0  0
    2.1266   -0.8079    0.0000 O   0  0  0  0  0  0  0  0  0  0  0  0
    4.2718   -2.0430    0.0000 O   0  0  0  0  0  0  0  0  0  0  0  0
    2.1359   -6.5376    0.0000 C   0  0  0  0  0  0  0  0  0  0  0  0
    2.8695   -2.8695    0.0000 C   0  0  0  0  0  0  0  0  0  0  0  0
    3.5660    0.0000    0.0000 C   0  0  0  0  0  0  0  0  0  0  0  0
    0.7150   -3.2781    0.0000 O   0  0  0  0  0  0  0  0  0  0  0  0
    9.2865   -7.3920    0.0000 C   0  0  0  0  0  0  0  0  0  0  0  0
    7.8471   -2.4609    0.0000 C   0  0  0  0  0  0  0  0  0  0  0  0
    4.9961    0.0000    0.0000 C   0  0  0  0  0  0  0  0  0  0  0  0
    0.0000   -3.7053    0.0000 C   0  0  0  0  0  0  0  0  0  0  0  0
    3.6031   -1.6251    0.0000 C   0  0  0  0  0  0  0  0  0  0  0  0
    1.4115   -2.0059    0.0000 O   0  0  0  0  0  0  0  0  0  0  0  0
    0.5665   -2.0059    0.0000 C   0  0  0  0  0  0  0  0  0  0  0  0
    0.1300   -1.2815    0.0000 O   0  0  0  0  0  0  0  0  0  0  0  0
    0.1578   -2.7581    0.0000 C   0  0  0  0  0  0  0  0  0  0  0  0
    2.1359   -4.1232    0.0000 C   0  0  0  0  0  0  0  0  0  0  0  0
  1  4  2  0
  1  6  1  0
  1 13  1  0
  2  3  1  0
  2  8  1  0
  2 10  2  0
  3 11  2  0
  3 20  1  0
  4  9  1  0
  4 14  1  0
  5  6  2  0
  5 10  1  0
  5 12  1  0
  6 11  1  0
  7 13  1  0
  7 26  1  0
  7 46  1  6
  7  9  1  0
  8 16  1  0
 10 39  1  0
 11 40  1  0
 12 41  1  0
 12 14  2  0
 13 32  2  0
 14 47  1  0
 15 21  1  0
 15 17  1  0
 15 55  1  1
 16 25  1  0
 16 34  2  0
 17 19  1  0
 17 54  1  1
 18 19  1  0
 18 23  1  0
 18 48  1  6
 19 44  1  6
 20 24  2  0
 21 30  1  0
 21 59  1  6
 22 24  1  0
 22 35  1  0
 22 36  1  0
 23 45  1  6
 23 37  1  0
 25 33  2  0
 25 51  1  0
 26 28  1  0
 27 42  1  0
 27 50  1  0
 27 43  1  0
 28 29  2  0
 29 30  1  0
 30 49  1  6
 31 33  1  0
 31 38  2  0
 35 43  1  0
 36 42  1  0
 37 38  1  0
 37 52  1  1
 49 53  1  0
 55 56  1  0
 56 57  2  0
 56 58  1  0
M  END
>  <Formula>  (495) 
C43H58N4O12

>  <FW>  (495) 
822.9402

>  <DSSTox_CID>  (495) 
1244

>  <NR-AR-LBD>  (495) 
0

>  <NR-ER-LBD>  (495) 
0

>  <NR-AhR>  (495) 
0

>  <SR-ARE>  (495) 
0

>  <SR-ATAD5>  (495) 
0

>  <SR-HSE>  (495) 
0

>  <SR-MMP>  (495) 
1

>  <SR-p53>  (495) 
0

$$$$
NCGC00257902-01
     RDKit          2D

 26 29  0  0  0  0  0  0  0  0999 V2000
    7.0874   -0.7125    0.0000 C   0  0  0  0  0  0  0  0  0  0  0  0
    6.2624   -0.7125    0.0000 O   0  0  0  0  0  0  0  0  0  0  0  0
    5.8499   -1.4250    0.0000 C   0  0  0  0  0  0  0  0  0  0  0  0
    5.0249   -1.4250    0.0000 C   0  0  0  0  0  0  0  0  0  0  0  0
    4.6124   -0.7125    0.0000 C   0  0  0  0  0  0  0  0  0  0  0  0
    3.7874   -0.7125    0.0000 N   0  0  0  0  0  0  0  0  0  0  0  0
    3.3675    0.0000    0.0000 C   0  0  0  0  0  0  0  0  0  0  0  0
    2.5425    0.0000    0.0000 C   0  0  0  0  0  0  0  0  0  0  0  0
    2.1300   -0.7125    0.0000 C   0  0  0  0  0  0  0  0  0  0  0  0
    2.5425   -1.4250    0.0000 C   0  0  0  0  0  0  0  0  0  0  0  0
    2.1300   -2.1450    0.0000 C   0  0  0  0  0  0  0  0  0  0  0  0
    1.3050   -2.1450    0.0000 C   0  0  0  0  0  0  0  0  0  0  0  0
    0.7575   -2.7525    0.0000 O   0  0  0  0  0  0  0  0  0  0  0  0
    0.0000   -2.4224    0.0000 C   0  0  0  0  0  0  0  0  0  0  0  0
    0.0900   -1.5975    0.0000 O   0  0  0  0  0  0  0  0  0  0  0  0
    0.8925   -1.4250    0.0000 C   0  0  0  0  0  0  0  0  0  0  0  0
    1.3050   -0.7125    0.0000 C   0  0  0  0  0  0  0  0  0  0  0  0
    3.3675   -1.4250    0.0000 C   0  0  0  0  0  0  0  0  0  0  0  0
    3.7874   -2.1450    0.0000 C   0  0  0  0  0  0  0  0  0  0  0  0
    4.6124   -2.1450    0.0000 C   0  0  0  0  0  0  0  0  0  0  0  0
    5.0249   -2.8574    0.0000 C   0  0  0  0  0  0  0  0  0  0  0  0
    5.8499   -2.8574    0.0000 C   0  0  0  0  0  0  0  0  0  0  0  0
    6.2624   -2.1450    0.0000 C   0  0  0  0  0  0  0  0  0  0  0  0
    7.0874   -2.1450    0.0000 O   0  0  0  0  0  0  0  0  0  0  0  0
    7.4998   -2.8574    0.0000 C   0  0  0  0  0  0  0  0  0  0  0  0
    3.7124   -3.6824    0.0000 Cl  0  0  0  0  0  0  0  0  0  0  0  0
  1  2  1  0
  2  3  1  0
  3  4  2  0
  3 23  1  0
  4  5  1  0
  4 20  1  0
  5  6  2  0
  6  7  1  0
  6 18  1  0
  7  8  1  0
  8  9  1  0
  9 10  2  0
  9 17  1  0
 10 11  1  0
 10 18  1  0
 11 12  2  0
 12 13  1  0
 12 16  1  0
 13 14  1  0
 14 15  1  0
 15 16  1  0
 16 17  2  0
 18 19  2  0
 19 20  1  0
 20 21  2  0
 21 22  1  0
 22 23  2  0
 23 24  1  0
 24 25  1  0
M  CHG  2   6   1  26  -1
M  END
>  <Formula>  (496) 
C20H18ClNO4

>  <FW>  (496) 
371.8142 (336.3607+35.4535)

>  <DSSTox_CID>  (496) 
4602

>  <NR-AR>  (496) 
0

>  <NR-ER-LBD>  (496) 
0

>  <NR-PPAR-gamma>  (496) 
0

>  <NR-AhR>  (496) 
1

>  <SR-ARE>  (496) 
1

>  <SR-ATAD5>  (496) 
0

>  <SR-HSE>  (496) 
0

>  <SR-MMP>  (496) 
1

>  <SR-p53>  (496) 
1

$$$$
NCGC00255032-01
     RDKit          2D

 27 29  0  0  0  0  0  0  0  0999 V2000
    4.6294   -1.2243    0.0000 C   0  0  0  0  0  0  0  0  0  0  0  0
    4.7660   -2.0441    0.0000 C   0  0  0  0  0  0  0  0  0  0  0  0
    3.8517   -0.9458    0.0000 C   0  0  0  0  0  0  0  0  0  0  0  0
    4.1407   -2.5695    0.0000 C   0  0  0  0  0  0  0  0  0  0  0  0
    3.2159   -1.4871    0.0000 C   0  0  0  0  0  0  0  0  0  0  0  0
    3.3630   -2.2910    0.0000 C   0  0  0  0  0  0  0  0  0  0  0  0
    1.2348   -1.6237    0.0000 C   0  0  0  0  0  0  0  0  0  0  0  0
    1.6500   -0.9091    0.0000 C   0  0  0  0  0  0  0  0  0  0  0  0
    0.4098   -1.6237    0.0000 C   0  0  0  0  0  0  0  0  0  0  0  0
    1.2348   -0.1997    0.0000 C   0  0  0  0  0  0  0  0  0  0  0  0
    0.0000   -0.9091    0.0000 C   0  0  0  0  0  0  0  0  0  0  0  0
    0.4098   -0.1997    0.0000 C   0  0  0  0  0  0  0  0  0  0  0  0
    2.0021   -1.5816    0.0000 C   0  0  0  0  0  0  0  0  0  0  0  0
    2.0021   -0.2417    0.0000 O   0  0  0  0  0  0  0  0  0  0  0  0
    2.7850   -0.4992    0.0000 C   0  0  0  0  0  0  0  0  0  0  0  0
    2.7850   -1.3242    0.0000 C   0  0  0  0  0  0  0  0  0  0  0  0
    3.4419    0.0000    0.0000 O   0  0  0  0  0  0  0  0  0  0  0  0
    1.8392   -2.2806    0.0000 O   0  0  0  0  0  0  0  0  0  0  0  0
    2.3909   -2.9059    0.0000 C   0  0  0  0  0  0  0  0  0  0  0  0
    3.1948   -2.7482    0.0000 O   0  0  0  0  0  0  0  0  0  0  0  0
    2.1176   -3.6835    0.0000 C   0  0  0  0  0  0  0  0  0  0  0  0
    5.2547   -0.6989    0.0000 Cl  0  0  0  0  0  0  0  0  0  0  0  0
    4.2878   -3.3840    0.0000 Cl  0  0  0  0  0  0  0  0  0  0  0  0
    1.3452   -3.4261    0.0000 C   0  0  0  0  0  0  0  0  0  0  0  0
    1.8601   -4.4717    0.0000 C   0  0  0  0  0  0  0  0  0  0  0  0
    2.9059   -3.9515    0.0000 C   0  0  0  0  0  0  0  0  0  0  0  0
    1.0457   -4.6294    0.0000 C   0  0  0  0  0  0  0  0  0  0  0  0
  1  2  2  0
  1  3  1  0
  1 22  1  0
  2  4  1  0
  3  5  2  0
  4  6  2  0
  4 23  1  0
  5  6  1  0
  5 16  1  0
  7  8  1  0
  7  9  1  0
  8 10  1  0
  8 13  1  0
  8 14  1  0
  9 11  1  0
 10 12  1  0
 11 12  1  0
 13 16  2  0
 13 18  1  0
 14 15  1  0
 15 16  1  0
 15 17  2  0
 18 19  1  0
 19 20  2  0
 19 21  1  0
 21 24  1  0
 21 25  1  0
 21 26  1  0
 25 27  1  0
M  END
>  <Formula>  (497) 
C21H24Cl2O4

>  <FW>  (497) 
411.3189

>  <DSSTox_CID>  (497) 
14928

>  <NR-AR>  (497) 
0

>  <NR-ER>  (497) 
1

>  <NR-ER-LBD>  (497) 
0

>  <NR-PPAR-gamma>  (497) 
1

>  <SR-ARE>  (497) 
1

>  <SR-ATAD5>  (497) 
0

>  <SR-HSE>  (497) 
0

>  <SR-MMP>  (497) 
1

>  <SR-p53>  (497) 
1

$$$$
NCGC00017291-05
     RDKit          2D

 27 29  0  0  1  0  0  0  0  0999 V2000
    3.5690   -4.0334    0.0000 C   0  0  0  0  0  0  0  0  0  0  0  0
    3.5690   -4.8707    0.0000 C   0  0  0  0  0  0  0  0  0  0  0  0
    2.8601   -3.6240    0.0000 N   0  0  0  0  0  0  0  0  0  0  0  0
    4.2901   -3.6240    0.0000 N   0  0  0  0  0  0  0  0  0  0  0  0
    2.8601   -5.2618    0.0000 N   0  0  0  0  0  0  0  0  0  0  0  0
    5.0052   -4.8707    0.0000 N   0  0  0  0  0  0  0  0  0  0  0  0
    4.2901   -5.2618    0.0000 C   0  0  0  0  0  0  0  0  0  0  0  0
    5.0052   -4.0334    0.0000 C   0  0  0  0  0  0  0  0  0  0  0  0
    2.1512   -4.0334    0.0000 C   0  0  0  0  0  0  0  0  0  0  0  0
    2.1512   -4.8707    0.0000 C   0  0  0  0  0  0  0  0  0  0  0  0
    1.4300   -3.6240    0.0000 C   0  0  0  0  0  0  0  0  0  0  0  0
    1.4300   -5.2618    0.0000 C   0  0  0  0  0  0  0  0  0  0  0  0
    0.7211   -4.0334    0.0000 C   0  0  0  0  0  0  0  0  0  0  0  0
    0.7211   -4.8707    0.0000 C   0  0  0  0  0  0  0  0  0  0  0  0
    4.2901   -6.1113    0.0000 O   0  0  0  0  0  0  0  0  0  0  0  0
    5.7263   -3.6240    0.0000 O   0  0  0  0  0  0  0  0  0  0  0  0
    0.0000   -3.6240    0.0000 C   0  0  0  0  0  0  0  0  0  0  0  0
    0.0000   -5.2863    0.0000 C   0  0  0  0  0  0  0  0  0  0  0  0
    4.2901   -0.3239    0.0000 C   0  0  0  0  0  0  0  0  0  0  0  0
    4.2901   -1.1489    0.0000 C   0  0  0  0  0  0  0  0  0  0  0  0
    3.5690   -1.5584    0.0000 C   0  0  0  0  0  0  0  0  0  0  0  0
    3.5690   -2.3834    0.0000 C   0  0  0  0  0  0  0  0  0  0  0  0
    2.8601   -2.7990    0.0000 C   0  0  0  0  0  0  0  0  0  0  0  0
    4.8463    0.0000    0.0000 O   0  0  0  0  0  0  0  0  0  0  0  0
    4.9929   -1.5584    0.0000 O   0  0  0  0  0  0  0  0  0  0  0  0
    2.8601   -1.1489    0.0000 O   0  0  0  0  0  0  0  0  0  0  0  0
    4.2901   -2.7990    0.0000 O   0  0  0  0  0  0  0  0  0  0  0  0
  1  2  1  0
  1  3  1  0
  1  4  2  0
  2  5  2  0
  2  7  1  0
  3  9  1  0
  3 23  1  0
  4  8  1  0
  5 10  1  0
  6  8  1  0
  6  7  1  0
  7 15  2  0
  8 16  2  0
  9 10  2  0
  9 11  1  0
 10 12  1  0
 11 13  2  0
 12 14  2  0
 13 14  1  0
 13 17  1  0
 14 18  1  0
 19 20  1  0
 19 24  1  0
 20 21  1  0
 20 25  1  1
 21 22  1  0
 21 26  1  6
 22 23  1  0
 22 27  1  1
M  END
>  <Formula>  (498) 
C17H20N4O6

>  <FW>  (498) 
376.3639

>  <DSSTox_CID>  (498) 
1777

>  <NR-Aromatase>  (498) 
0

>  <NR-AR>  (498) 
0

>  <NR-AR-LBD>  (498) 
0

>  <NR-ER>  (498) 
0

>  <NR-ER-LBD>  (498) 
0

>  <NR-PPAR-gamma>  (498) 
0

>  <NR-AhR>  (498) 
0

>  <SR-ATAD5>  (498) 
0

>  <SR-MMP>  (498) 
1

>  <SR-p53>  (498) 
0

$$$$
NCGC00255296-01
     RDKit          2D

 31 34  0  0  0  0  0  0  0  0999 V2000
    5.7916   -3.5774    0.0000 O   0  0  0  0  0  0  0  0  0  0  0  0
    6.1997   -2.8654    0.0000 C   0  0  0  0  0  0  0  0  0  0  0  0
    5.7916   -2.1447    0.0000 C   0  0  0  0  0  0  0  0  0  0  0  0
    6.1997   -1.4327    0.0000 C   0  0  0  0  0  0  0  0  0  0  0  0
    5.7916   -0.7120    0.0000 C   0  0  0  0  0  0  0  0  0  0  0  0
    6.1997    0.0000    0.0000 O   0  0  0  0  0  0  0  0  0  0  0  0
    4.9580   -0.7120    0.0000 C   0  0  0  0  0  0  0  0  0  0  0  0
    4.5499   -1.4327    0.0000 C   0  0  0  0  0  0  0  0  0  0  0  0
    7.0333   -1.4327    0.0000 C   0  0  0  0  0  0  0  0  0  0  0  0
    7.4413   -0.7120    0.0000 O   0  0  0  0  0  0  0  0  0  0  0  0
    7.4413   -2.1447    0.0000 C   0  0  0  0  0  0  0  0  0  0  0  0
    8.2662   -2.1447    0.0000 C   0  0  0  0  0  0  0  0  0  0  0  0
    8.6830   -1.4327    0.0000 O   0  0  0  0  0  0  0  0  0  0  0  0
    8.6830   -2.8654    0.0000 C   0  0  0  0  0  0  0  0  0  0  0  0
    8.2662   -3.5774    0.0000 C   0  0  0  0  0  0  0  0  0  0  0  0
    7.4413   -3.5774    0.0000 C   0  0  0  0  0  0  0  0  0  0  0  0
    7.0333   -4.2981    0.0000 N   0  0  0  0  0  0  0  0  0  0  0  0
    6.1997   -4.2981    0.0000 O   0  0  0  0  0  0  0  0  0  0  0  0
    7.4413   -5.0101    0.0000 O   0  0  0  0  0  0  0  0  0  0  0  0
    4.9580   -2.1447    0.0000 C   0  0  0  0  0  0  0  0  0  0  0  0
    4.5499   -2.8654    0.0000 N   0  0  0  0  0  0  0  0  0  0  0  0
    3.7250   -2.8654    0.0000 C   0  0  0  0  0  0  0  0  0  0  0  0
    3.3083   -3.5774    0.0000 C   0  0  0  0  0  0  0  0  0  0  0  0
    2.4833   -3.5774    0.0000 C   0  0  0  0  0  0  0  0  0  0  0  0
    2.0666   -2.8654    0.0000 C   0  0  0  0  0  0  0  0  0  0  0  0
    2.4833   -2.1447    0.0000 C   0  0  0  0  0  0  0  0  0  0  0  0
    1.2417   -2.8654    0.0000 C   0  0  0  0  0  0  0  0  0  0  0  0
    0.8249   -3.5774    0.0000 C   0  0  0  0  0  0  0  0  0  0  0  0
    0.0000   -3.5774    0.0000 O   0  0  0  0  0  0  0  0  0  0  0  0
    3.3083   -2.1447    0.0000 C   0  0  0  0  0  0  0  0  0  0  0  0
    7.0333   -2.8654    0.0000 C   0  0  0  0  0  0  0  0  0  0  0  0
  1  2  2  0
  2  3  1  0
  2 31  1  0
  3  4  2  0
  3 20  1  0
  4  5  1  0
  4  9  1  0
  5  6  1  0
  5  7  2  0
  7  8  1  0
  8 20  2  0
  9 10  2  0
  9 11  1  0
 11 12  1  0
 11 31  2  0
 12 13  1  0
 12 14  2  0
 14 15  1  0
 15 16  2  0
 16 17  1  0
 16 31  1  0
 17 18  1  0
 17 19  2  0
 20 21  1  0
 21 22  1  0
 22 23  2  0
 22 30  1  0
 23 24  1  0
 24 25  2  0
 25 26  1  0
 25 27  1  0
 26 30  2  0
 27 28  1  0
 28 29  1  0
M  CHG  2  17   1  18  -1
M  END
>  <Formula>  (499) 
C22H16N2O7

>  <FW>  (499) 
420.3716

>  <DSSTox_CID>  (499) 
5209

>  <NR-AR>  (499) 
0

>  <NR-ER>  (499) 
0

>  <NR-ER-LBD>  (499) 
0

>  <NR-AhR>  (499) 
1

>  <SR-ARE>  (499) 
1

>  <SR-ATAD5>  (499) 
0

>  <SR-HSE>  (499) 
0

>  <SR-MMP>  (499) 
1

>  <SR-p53>  (499) 
0

$$$$
NCGC00254359-01
     RDKit          2D

 29 31  0  0  1  0  0  0  0  0999 V2000
    3.5234   -2.5766    0.0000 C   0  0  0  0  0  0  0  0  0  0  0  0
    4.3281   -2.4008    0.0000 C   0  0  0  0  0  0  0  0  0  0  0  0
    2.8877   -2.0491    0.0000 C   0  0  0  0  0  0  0  0  0  0  0  0
    2.1776   -2.4616    0.0000 C   0  0  0  0  0  0  0  0  0  0  0  0
    4.9773   -2.8877    0.0000 C   0  0  0  0  0  0  0  0  0  0  0  0
    1.4472   -2.0491    0.0000 C   0  0  0  0  0  0  0  0  0  0  0  0
    3.1785   -3.3137    0.0000 C   0  0  0  0  0  0  0  0  0  0  0  0
    2.8877   -1.2240    0.0000 C   0  0  0  0  0  0  0  0  0  0  0  0
    4.9773   -3.7127    0.0000 C   0  0  0  0  0  0  0  0  0  0  0  0
    4.6730   -1.6501    0.0000 C   0  0  0  0  0  0  0  0  0  0  0  0
    1.4472   -1.2376    0.0000 C   0  0  0  0  0  0  0  0  0  0  0  0
    3.5234   -4.0508    0.0000 C   0  0  0  0  0  0  0  0  0  0  0  0
    4.3484   -4.2267    0.0000 C   0  0  0  0  0  0  0  0  0  0  0  0
    5.5251   -1.6501    0.0000 N   0  0  0  0  0  0  0  0  0  0  0  0
    2.1776   -0.8251    0.0000 C   0  0  0  0  0  0  0  0  0  0  0  0
    5.9241   -0.9400    0.0000 C   0  0  0  0  0  0  0  0  0  0  0  0
    3.5234   -0.7236    0.0000 C   0  0  0  0  0  0  0  0  0  0  0  0
    5.7280   -4.1117    0.0000 O   0  0  0  0  0  0  0  0  0  0  0  0
    4.3281   -0.9129    0.0000 C   0  0  0  0  0  0  0  0  0  0  0  0
    5.5116   -0.2097    0.0000 O   0  0  0  0  0  0  0  0  0  0  0  0
    2.1776   -3.2867    0.0000 O   0  0  0  0  0  0  0  0  0  0  0  0
    0.7101   -2.4481    0.0000 O   0  0  0  0  0  0  0  0  0  0  0  0
    0.7101   -0.8386    0.0000 O   0  0  0  0  0  0  0  0  0  0  0  0
    4.5648   -5.0247    0.0000 O   0  0  0  0  0  0  0  0  0  0  0  0
    6.7627   -0.9400    0.0000 C   0  0  0  0  0  0  0  0  0  0  0  0
    1.4405   -3.6992    0.0000 C   0  0  0  0  0  0  0  0  0  0  0  0
    0.0000   -2.0017    0.0000 C   0  0  0  0  0  0  0  0  0  0  0  0
    0.7101    0.0000    0.0000 C   0  0  0  0  0  0  0  0  0  0  0  0
    5.3155   -5.0247    0.0000 C   0  0  0  0  0  0  0  0  0  0  0  0
  1  2  1  0
  1  3  1  0
  1  7  2  0
  2  5  2  0
  2 10  1  0
  3  4  2  0
  3  8  1  0
  4  6  1  0
  4 21  1  0
  5  9  1  0
  6 22  1  0
  6 11  2  0
  7 12  1  0
  8 15  2  0
  8 17  1  0
  9 18  2  0
  9 13  1  0
 10 14  1  6
 10 19  1  0
 11 15  1  0
 11 23  1  0
 12 13  2  0
 13 24  1  0
 14 16  1  0
 16 20  2  0
 16 25  1  0
 17 19  1  0
 21 26  1  0
 22 27  1  0
 23 28  1  0
 24 29  1  0
M  END
>  <Formula>  (500) 
C22H25NO6

>  <FW>  (500) 
399.4370

>  <DSSTox_CID>  (500) 
4845

>  <NR-AR>  (500) 
0

>  <NR-ER>  (500) 
0

>  <NR-ER-LBD>  (500) 
0

>  <NR-AhR>  (500) 
0

>  <SR-ARE>  (500) 
1

>  <SR-ATAD5>  (500) 
1

>  <SR-HSE>  (500) 
0

>  <SR-MMP>  (500) 
1

>  <SR-p53>  (500) 
0

$$$$
NCGC00168265-01
     RDKit          2D

 24 27  0  0  1  0  0  0  0  0999 V2000
    2.1427   -2.5344    0.0000 C   0  0  0  0  0  0  0  0  0  0  0  0
    2.8252   -1.3117    0.0000 C   0  0  0  0  0  0  0  0  0  0  0  0
    2.1427   -1.7213    0.0000 C   0  0  0  0  0  0  0  0  0  0  0  0
    2.1427   -4.1963    0.0000 C   0  0  0  0  0  0  0  0  0  0  0  0
    2.8252   -2.9558    0.0000 C   0  0  0  0  0  0  0  0  0  0  0  0
    1.4067   -2.9558    0.0000 C   0  0  0  0  0  0  0  0  0  0  0  0
    3.5434   -2.5344    0.0000 N   0  0  0  0  0  0  0  0  0  0  0  0
    1.4067   -3.7808    0.0000 C   0  0  0  0  0  0  0  0  0  0  0  0
    3.5256   -0.8725    0.0000 C   0  0  0  0  0  0  0  0  0  0  0  0
    2.8252   -3.7808    0.0000 C   0  0  0  0  0  0  0  0  0  0  0  0
    2.1427   -5.0273    0.0000 C   0  0  0  0  0  0  0  0  0  0  0  0
    0.7063   -5.0273    0.0000 N   0  0  0  0  0  0  0  0  0  0  0  0
    3.5434   -1.7213    0.0000 C   0  0  0  0  0  0  0  0  0  0  0  0
    0.7063   -4.1963    0.0000 C   0  0  0  0  0  0  0  0  0  0  0  0
    4.3328   -1.2227    0.0000 N   0  0  0  0  0  0  0  0  0  0  0  0
    3.5256    0.0000    0.0000 O   0  0  0  0  0  0  0  0  0  0  0  0
    0.7063   -2.5344    0.0000 C   0  0  0  0  0  0  0  0  0  0  0  0
    4.2735   -2.9677    0.0000 C   0  0  0  0  0  0  0  0  0  0  0  0
    0.0000   -2.9558    0.0000 C   0  0  0  0  0  0  0  0  0  0  0  0
    0.0000   -3.7808    0.0000 C   0  0  0  0  0  0  0  0  0  0  0  0
    5.1222   -0.7894    0.0000 C   0  0  0  0  0  0  0  0  0  0  0  0
    4.3328   -2.0655    0.0000 C   0  0  0  0  0  0  0  0  0  0  0  0
    5.1519   -2.5760    0.0000 C   0  0  0  0  0  0  0  0  0  0  0  0
    5.9354   -1.2227    0.0000 C   0  0  0  0  0  0  0  0  0  0  0  0
  1  3  2  0
  1  5  1  0
  1  6  1  0
  2  3  1  0
  2  9  1  1
  2 13  1  0
  4  8  1  0
  4 11  2  0
  4 10  1  0
  5  7  1  0
  5 10  1  6
  6  8  2  0
  6 17  1  0
  7 13  1  0
  7 18  1  0
  8 14  1  0
  9 15  1  0
  9 16  2  0
 11 12  1  0
 12 14  1  0
 14 20  2  0
 15 21  1  0
 15 22  1  0
 17 19  2  0
 19 20  1  0
 21 24  1  0
 22 23  1  0
M  END
>  <Formula>  (501) 
C20H25N3O

>  <FW>  (501) 
323.4320

>  <DSSTox_CID>  (501) 
3231

>  <NR-Aromatase>  (501) 
0

>  <NR-AR>  (501) 
0

>  <NR-AR-LBD>  (501) 
0

>  <NR-ER>  (501) 
1

>  <NR-ER-LBD>  (501) 
1

>  <NR-PPAR-gamma>  (501) 
0

>  <NR-AhR>  (501) 
1

>  <SR-ATAD5>  (501) 
0

>  <SR-MMP>  (501) 
1

>  <SR-p53>  (501) 
0

$$$$
NCGC00095053-01
     RDKit          2D

 81 84  0  0  1  0  0  0  0  0999 V2000
    2.8862   -0.8338    0.0000 C   0  0  0  0  0  0  0  0  0  0  0  0
    1.4324   -1.6676    0.0000 C   0  0  0  0  0  0  0  0  0  0  0  0
    2.1379   -2.0738    0.0000 C   0  0  0  0  0  0  0  0  0  0  0  0
    2.8862   -1.6676    0.0000 O   0  0  0  0  0  0  0  0  0  0  0  0
    1.4324   -0.8338    0.0000 C   0  0  0  0  0  0  0  0  0  0  0  0
    2.1379   -0.4276    0.0000 C   0  0  0  0  0  0  0  0  0  0  0  0
   12.8490   -1.6676    0.0000 O   0  0  0  0  0  0  0  0  0  0  0  0
   12.8490   -0.8338    0.0000 C   0  0  0  0  0  0  0  0  0  0  0  0
    0.7269   -2.0952    0.0000 C   0  0  0  0  0  0  0  0  0  0  0  0
   13.5545   -2.0738    0.0000 C   0  0  0  0  0  0  0  0  0  0  0  0
    3.5703   -0.4276    0.0000 C   0  0  0  0  0  0  0  0  0  0  0  0
   17.8090   -2.0952    0.0000 C   0  0  0  0  0  0  0  0  0  0  0  0
    2.8862   -4.1476    0.0000 O   0  0  0  0  0  0  0  0  0  0  0  0
   12.1221   -0.4276    0.0000 C   0  0  0  0  0  0  0  0  0  0  0  0
    2.1379   -2.9076    0.0000 C   0  0  0  0  0  0  0  0  0  0  0  0
    9.9841   -0.8338    0.0000 C   0  0  0  0  0  0  0  0  0  0  0  0
   17.1035   -1.6890    0.0000 C   0  0  0  0  0  0  0  0  0  0  0  0
   18.5145   -1.6890    0.0000 C   0  0  0  0  0  0  0  0  0  0  0  0
    2.8862   -3.3352    0.0000 C   0  0  0  0  0  0  0  0  0  0  0  0
   10.7110   -0.4276    0.0000 C   0  0  0  0  0  0  0  0  0  0  0  0
    9.2786   -0.4276    0.0000 C   0  0  0  0  0  0  0  0  0  0  0  0
    4.2973   -0.8338    0.0000 C   0  0  0  0  0  0  0  0  0  0  0  0
   11.4166   -0.8338    0.0000 C   0  0  0  0  0  0  0  0  0  0  0  0
   13.5545   -0.4062    0.0000 O   0  0  0  0  0  0  0  0  0  0  0  0
   13.5545   -2.9076    0.0000 C   0  0  0  0  0  0  0  0  0  0  0  0
    0.0428   -1.6890    0.0000 O   0  0  0  0  0  0  0  0  0  0  0  0
    5.0028   -0.4276    0.0000 C   0  0  0  0  0  0  0  0  0  0  0  0
    7.8462   -0.4276    0.0000 C   0  0  0  0  0  0  0  0  0  0  0  0
    6.4138   -0.4276    0.0000 C   0  0  0  0  0  0  0  0  0  0  0  0
   17.8090   -2.9076    0.0000 O   0  0  0  0  0  0  0  0  0  0  0  0
    8.5518   -0.8338    0.0000 C   0  0  0  0  0  0  0  0  0  0  0  0
    7.1407   -0.8338    0.0000 C   0  0  0  0  0  0  0  0  0  0  0  0
    5.7083   -0.8338    0.0000 C   0  0  0  0  0  0  0  0  0  0  0  0
    8.5518   -3.3352    0.0000 C   0  0  0  0  0  0  0  0  0  0  0  0
   10.7110   -2.9076    0.0000 C   0  0  0  0  0  0  0  0  0  0  0  0
   11.4166   -3.3352    0.0000 C   0  0  0  0  0  0  0  0  0  0  0  0
    9.9841   -3.3352    0.0000 C   0  0  0  0  0  0  0  0  0  0  0  0
    5.0028   -2.9076    0.0000 C   0  0  0  0  0  0  0  0  0  0  0  0
    7.1407   -3.3352    0.0000 C   0  0  0  0  0  0  0  0  0  0  0  0
    6.4138   -2.9076    0.0000 C   0  0  0  0  0  0  0  0  0  0  0  0
    5.7083   -3.3352    0.0000 C   0  0  0  0  0  0  0  0  0  0  0  0
    7.8462   -2.9076    0.0000 C   0  0  0  0  0  0  0  0  0  0  0  0
    9.2786   -2.9076    0.0000 C   0  0  0  0  0  0  0  0  0  0  0  0
    9.9841   -1.6676    0.0000 O   0  0  0  0  0  0  0  0  0  0  0  0
   12.1221   -2.9076    0.0000 C   0  0  0  0  0  0  0  0  0  0  0  0
    4.2973   -3.3352    0.0000 C   0  0  0  0  0  0  0  0  0  0  0  0
    3.5703   -2.9076    0.0000 C   0  0  0  0  0  0  0  0  0  0  0  0
   12.8490   -3.3352    0.0000 C   0  0  0  0  0  0  0  0  0  0  0  0
    2.8862    0.0000    0.0000 O   0  0  0  0  0  0  0  0  0  0  0  0
   14.2814   -1.6676    0.0000 C   0  0  0  0  0  0  0  0  0  0  0  0
   18.5145   -0.8552    0.0000 C   0  0  0  0  0  0  0  0  0  0  0  0
   19.2414   -2.0952    0.0000 C   0  0  0  0  0  0  0  0  0  0  0  0
   14.9869   -2.0738    0.0000 C   0  0  0  0  0  0  0  0  0  0  0  0
    0.7269   -0.4062    0.0000 O   0  0  0  0  0  0  0  0  0  0  0  0
   19.9469   -0.8552    0.0000 C   0  0  0  0  0  0  0  0  0  0  0  0
    0.7269   -2.9076    0.0000 O   0  0  0  0  0  0  0  0  0  0  0  0
   20.6738   -0.4489    0.0000 N   0  0  0  0  0  0  0  0  0  0  0  0
   19.9469   -1.6890    0.0000 C   0  0  0  0  0  0  0  0  0  0  0  0
   19.2414   -0.4489    0.0000 C   0  0  0  0  0  0  0  0  0  0  0  0
   16.3980   -2.0952    0.0000 C   0  0  0  0  0  0  0  0  0  0  0  0
   15.6711   -1.6890    0.0000 C   0  0  0  0  0  0  0  0  0  0  0  0
   11.4166   -1.6676    0.0000 O   0  0  0  0  0  0  0  0  0  0  0  0
    4.2973   -1.6676    0.0000 O   0  0  0  0  0  0  0  0  0  0  0  0
    7.1407   -1.6676    0.0000 O   0  0  0  0  0  0  0  0  0  0  0  0
    8.5518   -1.6676    0.0000 O   0  0  0  0  0  0  0  0  0  0  0  0
    5.7083   -1.6676    0.0000 O   0  0  0  0  0  0  0  0  0  0  0  0
   16.3980   -2.9076    0.0000 O   0  0  0  0  0  0  0  0  0  0  0  0
   14.2814   -3.3565    0.0000 C   0  0  0  0  0  0  0  0  0  0  0  0
   21.3793   -0.8552    0.0000 C   0  0  0  0  0  0  0  0  0  0  0  0
   14.2814   -0.8338    0.0000 C   0  0  0  0  0  0  0  0  0  0  0  0
    0.0428   -3.3352    0.0000 C   0  0  0  0  0  0  0  0  0  0  0  0
    2.1593   -4.5538    0.0000 C   0  0  0  0  0  0  0  0  0  0  0  0
    2.1593   -5.3876    0.0000 C   0  0  0  0  0  0  0  0  0  0  0  0
    1.4538   -4.1476    0.0000 O   0  0  0  0  0  0  0  0  0  0  0  0
    1.4538   -5.7938    0.0000 C   0  0  0  0  0  0  0  0  0  0  0  0
    0.7483   -4.5538    0.0000 C   0  0  0  0  0  0  0  0  0  0  0  0
    0.7483   -5.3876    0.0000 C   0  0  0  0  0  0  0  0  0  0  0  0
    2.9076   -5.8152    0.0000 O   0  0  0  0  0  0  0  0  0  0  0  0
    1.4538   -6.6490    0.0000 N   0  0  0  0  0  0  0  0  0  0  0  0
    0.0000   -4.1476    0.0000 C   0  0  0  0  0  0  0  0  0  0  0  0
    0.0000   -5.8152    0.0000 O   0  0  0  0  0  0  0  0  0  0  0  0
  1  4  1  0
  1  6  1  0
  1 11  1  0
  1 49  1  0
  2  5  1  0
  2  9  1  0
  2  3  1  0
  3  4  1  0
  3 15  1  0
  5  6  1  0
  5 54  1  0
  7  8  1  0
  7 10  1  0
  8 14  1  0
  8 24  2  0
  9 26  2  0
  9 56  1  0
 10 25  1  0
 10 50  1  0
 11 22  1  0
 12 17  1  0
 12 18  1  0
 12 30  2  0
 13 19  1  0
 72 13  1  1
 14 23  1  0
 15 19  1  0
 16 21  1  0
 16 20  1  0
 16 44  2  0
 17 60  1  0
 18 51  2  0
 18 52  1  0
 19 47  1  0
 20 23  1  0
 21 31  1  0
 22 27  1  0
 22 63  1  0
 23 62  1  0
 25 48  1  0
 25 68  1  0
 27 33  1  0
 28 32  1  0
 28 31  1  0
 29 33  1  0
 29 32  1  0
 31 65  1  0
 32 64  1  0
 33 66  1  0
 34 42  2  0
 34 43  1  0
 35 37  1  0
 35 36  2  0
 36 45  1  0
 37 43  2  0
 38 46  1  0
 38 41  2  0
 39 40  2  0
 39 42  1  0
 40 41  1  0
 45 48  2  0
 46 47  2  0
 50 53  1  0
 50 70  1  0
 51 59  1  0
 52 58  2  0
 53 61  1  0
 55 58  1  0
 55 57  1  0
 55 59  2  0
 56 71  1  0
 57 69  1  0
 60 61  1  0
 60 67  1  0
 72 73  1  0
 72 74  1  0
 73 75  1  0
 73 78  1  1
 74 76  1  0
 75 77  1  0
 75 79  1  1
 76 77  1  0
 76 80  1  1
 77 81  1  6
M  END
>  <Formula>  (502) 
C60H88N2O19

>  <FW>  (502) 
1141.3427

>  <DSSTox_CID>  (502) 
25900

>  <NR-Aromatase>  (502) 
0

>  <NR-AR>  (502) 
0

>  <NR-AR-LBD>  (502) 
0

>  <NR-ER>  (502) 
0

>  <NR-ER-LBD>  (502) 
0

>  <NR-PPAR-gamma>  (502) 
0

>  <NR-AhR>  (502) 
0

>  <SR-ATAD5>  (502) 
0

>  <SR-MMP>  (502) 
1

>  <SR-p53>  (502) 
0

$$$$
NCGC00015823-02
     RDKit          2D

 23 25  0  0  0  0  0  0  0  0999 V2000
    2.8901   -2.9560    0.0000 O   0  0  0  0  0  0  0  0  0  0  0  0
    2.4744   -2.2434    0.0000 C   0  0  0  0  0  0  0  0  0  0  0  0
    2.8901   -1.5242    0.0000 C   0  0  0  0  0  0  0  0  0  0  0  0
    3.7148   -1.5242    0.0000 C   0  0  0  0  0  0  0  0  0  0  0  0
    4.1240   -2.2434    0.0000 O   0  0  0  0  0  0  0  0  0  0  0  0
    4.1240   -0.8116    0.0000 N   0  0  0  0  0  0  0  0  0  0  0  0
    4.9487   -0.8116    0.0000 C   0  0  0  0  0  0  0  0  0  0  0  0
    5.3644   -0.0990    0.0000 N   0  0  0  0  0  0  0  0  0  0  0  0
    6.1826   -0.0990    0.0000 C   0  0  0  0  0  0  0  0  0  0  0  0
    6.5983   -0.8116    0.0000 C   0  0  0  0  0  0  0  0  0  0  0  0
    6.1826   -1.5242    0.0000 C   0  0  0  0  0  0  0  0  0  0  0  0
    5.3644   -1.5242    0.0000 C   0  0  0  0  0  0  0  0  0  0  0  0
    2.4744   -0.8116    0.0000 N   0  0  0  0  0  0  0  0  0  0  0  0
    1.6496   -0.8116    0.0000 S   0  0  0  0  0  0  0  0  0  0  0  0
    0.8776   -0.5278    0.0000 O   0  0  0  0  0  0  0  0  0  0  0  0
    1.7947    0.0000    0.0000 O   0  0  0  0  0  0  0  0  0  0  0  0
    1.2339   -1.5242    0.0000 C   0  0  0  0  0  0  0  0  0  0  0  0
    1.6496   -2.2434    0.0000 C   0  0  0  0  0  0  0  0  0  0  0  0
    1.2339   -2.9560    0.0000 C   0  0  0  0  0  0  0  0  0  0  0  0
    0.4091   -2.9560    0.0000 C   0  0  0  0  0  0  0  0  0  0  0  0
    0.0000   -2.2434    0.0000 C   0  0  0  0  0  0  0  0  0  0  0  0
    0.4091   -1.5242    0.0000 C   0  0  0  0  0  0  0  0  0  0  0  0
    2.8901   -0.0990    0.0000 C   0  0  0  0  0  0  0  0  0  0  0  0
  1  2  1  0
  2  3  2  0
  2 18  1  0
  3  4  1  0
  3 13  1  0
  4  5  2  0
  4  6  1  0
  6  7  1  0
  7  8  2  0
  7 12  1  0
  8  9  1  0
  9 10  2  0
 10 11  1  0
 11 12  2  0
 13 14  1  0
 13 23  1  0
 14 15  2  0
 14 16  2  0
 14 17  1  0
 17 18  2  0
 17 22  1  0
 18 19  1  0
 19 20  2  0
 20 21  1  0
 21 22  2  0
M  END
>  <Formula>  (503) 
C15H13N3O4S

>  <FW>  (503) 
331.3464

>  <DSSTox_CID>  (503) 
1170

>  <NR-Aromatase>  (503) 
0

>  <NR-AR>  (503) 
0

>  <NR-AR-LBD>  (503) 
0

>  <NR-ER>  (503) 
0

>  <NR-ER-LBD>  (503) 
0

>  <NR-PPAR-gamma>  (503) 
0

>  <NR-AhR>  (503) 
0

>  <SR-ATAD5>  (503) 
0

>  <SR-MMP>  (503) 
1

>  <SR-p53>  (503) 
0

$$$$
NCGC00016829-05
     RDKit          2D

 23 25  0  0  0  0  0  0  0  0999 V2000
    2.1359   -0.7239    0.0000 S   0  0  0  0  0  0  0  0  0  0  0  0
    2.8526   -1.1325    0.0000 N   0  0  0  0  0  0  0  0  0  0  0  0
    2.8526   -1.9567    0.0000 C   0  0  0  0  0  0  0  0  0  0  0  0
    2.1359   -2.3653    0.0000 C   0  0  0  0  0  0  0  0  0  0  0  0
    3.5766   -2.3724    0.0000 C   0  0  0  0  0  0  0  0  0  0  0  0
    1.4263   -1.1325    0.0000 C   0  0  0  0  0  0  0  0  0  0  0  0
    1.4263   -1.9567    0.0000 C   0  0  0  0  0  0  0  0  0  0  0  0
    5.0029   -2.3796    0.0000 C   0  0  0  0  0  0  0  0  0  0  0  0
    4.2862   -1.9639    0.0000 N   0  0  0  0  0  0  0  0  0  0  0  0
    5.1821   -3.1895    0.0000 N   0  0  0  0  0  0  0  0  0  0  0  0
    5.7268   -1.9782    0.0000 C   0  0  0  0  0  0  0  0  0  0  0  0
    2.5516    0.0000    0.0000 O   0  0  0  0  0  0  0  0  0  0  0  0
    1.7704   -0.0072    0.0000 O   0  0  0  0  0  0  0  0  0  0  0  0
    5.9992   -3.2756    0.0000 O   0  0  0  0  0  0  0  0  0  0  0  0
    6.3432   -2.5301    0.0000 C   0  0  0  0  0  0  0  0  0  0  0  0
    3.5766   -3.2039    0.0000 O   0  0  0  0  0  0  0  0  0  0  0  0
    2.1359   -3.1895    0.0000 O   0  0  0  0  0  0  0  0  0  0  0  0
    3.5766   -0.7167    0.0000 C   0  0  0  0  0  0  0  0  0  0  0  0
    0.7239   -2.3653    0.0000 C   0  0  0  0  0  0  0  0  0  0  0  0
    0.7239   -0.7239    0.0000 C   0  0  0  0  0  0  0  0  0  0  0  0
    7.1675   -2.3940    0.0000 C   0  0  0  0  0  0  0  0  0  0  0  0
    0.0000   -1.9567    0.0000 C   0  0  0  0  0  0  0  0  0  0  0  0
    0.0000   -1.1325    0.0000 C   0  0  0  0  0  0  0  0  0  0  0  0
  1  2  1  0
  1  6  1  0
  1 12  2  0
  1 13  2  0
  2  3  1  0
  2 18  1  0
  3  5  1  0
  3  4  2  0
  4  7  1  0
  4 17  1  0
  5  9  1  0
  5 16  2  0
  6  7  2  0
  6 20  1  0
  7 19  1  0
  8  9  1  0
  8 10  2  0
  8 11  1  0
 10 14  1  0
 11 15  2  0
 14 15  1  0
 15 21  1  0
 19 22  2  0
 20 23  2  0
 22 23  1  0
M  END
>  <Formula>  (504) 
C14H13N3O5S

>  <FW>  (504) 
335.3351

>  <DSSTox_CID>  (504) 
25462

>  <NR-Aromatase>  (504) 
0

>  <NR-AR>  (504) 
0

>  <NR-AR-LBD>  (504) 
0

>  <NR-ER>  (504) 
0

>  <NR-ER-LBD>  (504) 
0

>  <NR-PPAR-gamma>  (504) 
0

>  <NR-AhR>  (504) 
0

>  <SR-ATAD5>  (504) 
0

>  <SR-MMP>  (504) 
1

>  <SR-p53>  (504) 
0

$$$$
NCGC00159516-02
     RDKit          2D

 23 25  0  0  0  0  0  0  0  0999 V2000
    1.4096   -1.4662    0.0000 C   0  0  0  0  0  0  0  0  0  0  0  0
    1.4096   -2.3021    0.0000 C   0  0  0  0  0  0  0  0  0  0  0  0
    2.1108   -1.0554    0.0000 C   0  0  0  0  0  0  0  0  0  0  0  0
    0.6729   -1.0554    0.0000 C   0  0  0  0  0  0  0  0  0  0  0  0
    2.1108   -2.7412    0.0000 S   0  0  0  0  0  0  0  0  0  0  0  0
    0.6729   -2.7129    0.0000 C   0  0  0  0  0  0  0  0  0  0  0  0
    2.8262   -1.4662    0.0000 C   0  0  0  0  0  0  0  0  0  0  0  0
    2.1108   -0.2125    0.0000 O   0  0  0  0  0  0  0  0  0  0  0  0
    0.0000   -1.4662    0.0000 C   0  0  0  0  0  0  0  0  0  0  0  0
    2.8262   -2.3304    0.0000 N   0  0  0  0  0  0  0  0  0  0  0  0
    2.4933   -3.4425    0.0000 O   0  0  0  0  0  0  0  0  0  0  0  0
    1.6858   -3.4425    0.0000 O   0  0  0  0  0  0  0  0  0  0  0  0
    0.0000   -2.3021    0.0000 C   0  0  0  0  0  0  0  0  0  0  0  0
    3.5558   -1.0554    0.0000 C   0  0  0  0  0  0  0  0  0  0  0  0
    3.5558   -2.7129    0.0000 C   0  0  0  0  0  0  0  0  0  0  0  0
    4.2853   -1.4662    0.0000 N   0  0  0  0  0  0  0  0  0  0  0  0
    3.5558   -0.2125    0.0000 O   0  0  0  0  0  0  0  0  0  0  0  0
    4.9937   -1.0554    0.0000 C   0  0  0  0  0  0  0  0  0  0  0  0
    5.0007   -0.2267    0.0000 N   0  0  0  0  0  0  0  0  0  0  0  0
    5.7515   -1.3033    0.0000 S   0  0  0  0  0  0  0  0  0  0  0  0
    5.7728    0.0000    0.0000 C   0  0  0  0  0  0  0  0  0  0  0  0
    6.2686   -0.6588    0.0000 C   0  0  0  0  0  0  0  0  0  0  0  0
    7.0832   -0.6375    0.0000 C   0  0  0  0  0  0  0  0  0  0  0  0
  1  2  2  0
  1  3  1  0
  1  4  1  0
  2  5  1  0
  2  6  1  0
  3  7  2  0
  3  8  1  0
  4  9  2  0
  5 10  1  0
  5 11  2  0
  5 12  2  0
  6 13  2  0
  7 14  1  0
  7 10  1  0
  9 13  1  0
 10 15  1  0
 14 16  1  0
 14 17  2  0
 16 18  1  0
 18 19  2  0
 18 20  1  0
 19 21  1  0
 20 22  1  0
 21 22  2  0
 22 23  1  0
M  END
>  <Formula>  (505) 
C14H13N3O4S2

>  <FW>  (505) 
351.4007

>  <DSSTox_CID>  (505) 
803

>  <NR-Aromatase>  (505) 
0

>  <NR-AR>  (505) 
0

>  <NR-AR-LBD>  (505) 
0

>  <NR-ER>  (505) 
0

>  <NR-ER-LBD>  (505) 
0

>  <NR-PPAR-gamma>  (505) 
0

>  <NR-AhR>  (505) 
0

>  <SR-ATAD5>  (505) 
0

>  <SR-MMP>  (505) 
1

>  <SR-p53>  (505) 
0

$$$$
NCGC00016889-01
     RDKit          2D

 22 24  0  0  0  0  0  0  0  0999 V2000
    1.9617   -0.7185    0.0000 S   0  0  0  0  0  0  0  0  0  0  0  0
    1.2620   -1.1245    0.0000 C   0  0  0  0  0  0  0  0  0  0  0  0
    2.6801   -1.9367    0.0000 C   0  0  0  0  0  0  0  0  0  0  0  0
    2.6801   -1.1245    0.0000 N   0  0  0  0  0  0  0  0  0  0  0  0
    1.9617   -2.3553    0.0000 C   0  0  0  0  0  0  0  0  0  0  0  0
    1.2620   -1.9367    0.0000 C   0  0  0  0  0  0  0  0  0  0  0  0
    3.3923   -2.3615    0.0000 C   0  0  0  0  0  0  0  0  0  0  0  0
    4.1170   -1.9554    0.0000 N   0  0  0  0  0  0  0  0  0  0  0  0
    0.4748   -0.8622    0.0000 C   0  0  0  0  0  0  0  0  0  0  0  0
    0.4748   -2.1928    0.0000 S   0  0  0  0  0  0  0  0  0  0  0  0
    1.4056   -0.1000    0.0000 O   0  0  0  0  0  0  0  0  0  0  0  0
    2.3803    0.0000    0.0000 O   0  0  0  0  0  0  0  0  0  0  0  0
    0.0000   -1.5369    0.0000 C   0  0  0  0  0  0  0  0  0  0  0  0
    4.8292   -2.3615    0.0000 C   0  0  0  0  0  0  0  0  0  0  0  0
    3.3798   -3.1986    0.0000 O   0  0  0  0  0  0  0  0  0  0  0  0
    4.8292   -3.1986    0.0000 N   0  0  0  0  0  0  0  0  0  0  0  0
    1.9617   -3.1737    0.0000 O   0  0  0  0  0  0  0  0  0  0  0  0
    3.3923   -0.6997    0.0000 C   0  0  0  0  0  0  0  0  0  0  0  0
    5.5414   -3.5923    0.0000 C   0  0  0  0  0  0  0  0  0  0  0  0
    5.5414   -1.9554    0.0000 C   0  0  0  0  0  0  0  0  0  0  0  0
    6.2473   -3.1986    0.0000 C   0  0  0  0  0  0  0  0  0  0  0  0
    6.2473   -2.3615    0.0000 C   0  0  0  0  0  0  0  0  0  0  0  0
  1  2  1  0
  1  4  1  0
  1 11  2  0
  1 12  2  0
  2  6  2  0
  2  9  1  0
  3  4  1  0
  3  5  2  0
  3  7  1  0
  4 18  1  0
  5 17  1  0
  5  6  1  0
  6 10  1  0
  7  8  1  0
  7 15  2  0
  8 14  1  0
  9 13  2  0
 10 13  1  0
 14 16  2  0
 14 20  1  0
 16 19  1  0
 19 21  2  0
 20 22  2  0
 21 22  1  0
M  END
>  <Formula>  (506) 
C13H11N3O4S2

>  <FW>  (506) 
337.3741

>  <DSSTox_CID>  (506) 
25486

>  <NR-Aromatase>  (506) 
0

>  <NR-AR>  (506) 
0

>  <NR-AR-LBD>  (506) 
0

>  <NR-ER>  (506) 
0

>  <NR-ER-LBD>  (506) 
0

>  <NR-PPAR-gamma>  (506) 
0

>  <NR-AhR>  (506) 
0

>  <SR-ATAD5>  (506) 
0

>  <SR-MMP>  (506) 
1

>  <SR-p53>  (506) 
0

$$$$
NCGC00257446-01
     RDKit          2D

 38 42  0  0  0  0  0  0  0  0999 V2000
    3.5785   -4.6732    0.0000 C   0  0  0  0  0  0  0  0  0  0  0  0
    3.5785   -5.4961    0.0000 O   0  0  0  0  0  0  0  0  0  0  0  0
    4.2881   -4.2655    0.0000 N   0  0  0  0  0  0  0  0  0  0  0  0
    2.8613   -4.2655    0.0000 N   0  0  0  0  0  0  0  0  0  0  0  0
    5.0053   -4.6732    0.0000 C   0  0  0  0  0  0  0  0  0  0  0  0
    5.0053   -5.4961    0.0000 C   0  0  0  0  0  0  0  0  0  0  0  0
    5.7226   -5.9189    0.0000 C   0  0  0  0  0  0  0  0  0  0  0  0
    4.2881   -5.9189    0.0000 C   0  0  0  0  0  0  0  0  0  0  0  0
    5.7226   -6.7418    0.0000 C   0  0  0  0  0  0  0  0  0  0  0  0
    4.2881   -6.7418    0.0000 C   0  0  0  0  0  0  0  0  0  0  0  0
    5.0053   -7.1494    0.0000 C   0  0  0  0  0  0  0  0  0  0  0  0
    4.2881   -3.4426    0.0000 C   0  0  0  0  0  0  0  0  0  0  0  0
    5.7603   -3.3595    0.0000 O   0  0  0  0  0  0  0  0  0  0  0  0
    6.3190   -2.7405    0.0000 C   0  0  0  0  0  0  0  0  0  0  0  0
    5.0053   -3.0198    0.0000 C   0  0  0  0  0  0  0  0  0  0  0  0
    5.8962   -2.0384    0.0000 C   0  0  0  0  0  0  0  0  0  0  0  0
    5.0960   -2.2045    0.0000 C   0  0  0  0  0  0  0  0  0  0  0  0
    7.1419   -2.7405    0.0000 C   0  0  0  0  0  0  0  0  0  0  0  0
    7.5496   -2.0384    0.0000 C   0  0  0  0  0  0  0  0  0  0  0  0
    7.1419   -1.3212    0.0000 C   0  0  0  0  0  0  0  0  0  0  0  0
    6.3190   -1.3212    0.0000 C   0  0  0  0  0  0  0  0  0  0  0  0
    3.0802   -1.3514    0.0000 C   0  0  0  0  0  0  0  0  0  0  0  0
    3.2539   -0.5436    0.0000 C   0  0  0  0  0  0  0  0  0  0  0  0
    4.0390   -0.2869    0.0000 C   0  0  0  0  0  0  0  0  0  0  0  0
    4.6581   -0.8456    0.0000 C   0  0  0  0  0  0  0  0  0  0  0  0
    4.4769   -1.6458    0.0000 C   0  0  0  0  0  0  0  0  0  0  0  0
    3.6917   -1.9100    0.0000 C   0  0  0  0  0  0  0  0  0  0  0  0
    2.6348    0.0000    0.0000 Cl  0  0  0  0  0  0  0  0  0  0  0  0
    7.5496   -0.6040    0.0000 C   0  0  0  0  0  0  0  0  0  0  0  0
    1.4344   -5.9189    0.0000 C   0  0  0  0  0  0  0  0  0  0  0  0
    0.7172   -5.4961    0.0000 C   0  0  0  0  0  0  0  0  0  0  0  0
    0.7172   -4.6732    0.0000 C   0  0  0  0  0  0  0  0  0  0  0  0
    1.4344   -4.2655    0.0000 C   0  0  0  0  0  0  0  0  0  0  0  0
    2.1516   -4.6732    0.0000 C   0  0  0  0  0  0  0  0  0  0  0  0
    2.1516   -5.4961    0.0000 C   0  0  0  0  0  0  0  0  0  0  0  0
    2.8613   -5.9189    0.0000 F   0  0  0  0  0  0  0  0  0  0  0  0
    0.0000   -5.9189    0.0000 F   0  0  0  0  0  0  0  0  0  0  0  0
    1.4344   -3.4426    0.0000 F   0  0  0  0  0  0  0  0  0  0  0  0
  1  2  2  0
  1  3  1  0
  1  4  1  0
  3  5  1  0
  3 12  1  0
  4 34  1  0
  5  6  1  0
  6  7  2  0
  6  8  1  0
  7  9  1  0
  8 10  2  0
  9 11  2  0
 10 11  1  0
 12 15  1  0
 13 14  1  0
 13 15  1  0
 14 16  2  0
 14 18  1  0
 15 17  2  0
 16 17  1  0
 16 21  1  0
 17 26  1  0
 18 19  2  0
 19 20  1  0
 20 21  2  0
 20 29  1  0
 22 27  2  0
 22 23  1  0
 23 24  2  0
 23 28  1  0
 24 25  1  0
 25 26  2  0
 26 27  1  0
 30 35  2  0
 30 31  1  0
 31 32  2  0
 31 37  1  0
 32 33  1  0
 33 34  2  0
 33 38  1  0
 34 35  1  0
 35 36  1  0
M  END
>  <Formula>  (507) 
C30H22ClF3N2O2

>  <FW>  (507) 
534.9561

>  <DSSTox_CID>  (507) 
28145

>  <NR-AR>  (507) 
0

>  <NR-AR-LBD>  (507) 
0

>  <NR-ER>  (507) 
0

>  <NR-ER-LBD>  (507) 
0

>  <NR-PPAR-gamma>  (507) 
0

>  <NR-AhR>  (507) 
0

>  <SR-ARE>  (507) 
0

>  <SR-ATAD5>  (507) 
0

>  <SR-MMP>  (507) 
1

$$$$
NCGC00254208-01
     RDKit          2D

 37 40  0  0  0  0  0  0  0  0999 V2000
    2.1410   -3.3613    0.0000 C   0  0  0  0  0  0  0  0  0  0  0  0
    2.8617   -3.7752    0.0000 C   0  0  0  0  0  0  0  0  0  0  0  0
    1.4273   -3.7752    0.0000 C   0  0  0  0  0  0  0  0  0  0  0  0
    2.1410   -2.5335    0.0000 C   0  0  0  0  0  0  0  0  0  0  0  0
    2.8617   -4.5959    0.0000 N   0  0  0  0  0  0  0  0  0  0  0  0
    3.5683   -3.3613    0.0000 C   0  0  0  0  0  0  0  0  0  0  0  0
    1.4273   -4.5959    0.0000 C   0  0  0  0  0  0  0  0  0  0  0  0
    0.7065   -3.3613    0.0000 C   0  0  0  0  0  0  0  0  0  0  0  0
    1.4273   -2.1195    0.0000 C   0  0  0  0  0  0  0  0  0  0  0  0
    2.8617   -2.1195    0.0000 C   0  0  0  0  0  0  0  0  0  0  0  0
    3.5683   -5.0027    0.0000 C   0  0  0  0  0  0  0  0  0  0  0  0
    2.1410   -5.0027    0.0000 S   0  0  0  0  0  0  0  0  0  0  0  0
    4.2890   -3.7681    0.0000 O   0  0  0  0  0  0  0  0  0  0  0  0
    3.5683   -2.5335    0.0000 O   0  0  0  0  0  0  0  0  0  0  0  0
    0.7065   -5.0027    0.0000 C   0  0  0  0  0  0  0  0  0  0  0  0
    0.0000   -3.7752    0.0000 C   0  0  0  0  0  0  0  0  0  0  0  0
    1.4273   -1.2988    0.0000 C   0  0  0  0  0  0  0  0  0  0  0  0
    2.8617   -1.2988    0.0000 C   0  0  0  0  0  0  0  0  0  0  0  0
    3.5683   -5.8305    0.0000 C   0  0  0  0  0  0  0  0  0  0  0  0
    4.2890   -4.5959    0.0000 C   0  0  0  0  0  0  0  0  0  0  0  0
    2.6334   -5.4095    0.0000 O   0  0  0  0  0  0  0  0  0  0  0  0
    1.4273   -5.4237    0.0000 O   0  0  0  0  0  0  0  0  0  0  0  0
    0.0000   -4.5959    0.0000 C   0  0  0  0  0  0  0  0  0  0  0  0
    2.1410   -0.8850    0.0000 C   0  0  0  0  0  0  0  0  0  0  0  0
    0.8064   -0.7493    0.0000 O   0  0  0  0  0  0  0  0  0  0  0  0
    3.5683   -0.8850    0.0000 C   0  0  0  0  0  0  0  0  0  0  0  0
    4.2890   -6.2516    0.0000 C   0  0  0  0  0  0  0  0  0  0  0  0
    3.0402   -6.4871    0.0000 C   0  0  0  0  0  0  0  0  0  0  0  0
    4.9955   -5.0027    0.0000 C   0  0  0  0  0  0  0  0  0  0  0  0
    1.9625   -0.0785    0.0000 O   0  0  0  0  0  0  0  0  0  0  0  0
    1.1489    0.0000    0.0000 C   0  0  0  0  0  0  0  0  0  0  0  0
    3.4184   -0.0785    0.0000 C   0  0  0  0  0  0  0  0  0  0  0  0
    4.9955   -5.8305    0.0000 C   0  0  0  0  0  0  0  0  0  0  0  0
    2.5192   -7.1365    0.0000 F   0  0  0  0  0  0  0  0  0  0  0  0
    3.6967   -7.0152    0.0000 F   0  0  0  0  0  0  0  0  0  0  0  0
    2.3907   -5.9590    0.0000 F   0  0  0  0  0  0  0  0  0  0  0  0
    5.6022   -2.7904    0.0000 K   0  0  0  0  0 15  0  0  0  0  0  0
  1  2  2  0
  1  3  1  0
  1  4  1  0
  2  5  1  0
  2  6  1  0
  3  7  2  0
  3  8  1  0
  4  9  2  0
  4 10  1  0
  5 11  1  0
  5 12  1  0
  6 13  1  0
  6 14  2  0
  7 15  1  0
  7 12  1  0
  8 16  2  0
  9 17  1  0
 10 18  2  0
 11 19  2  0
 11 20  1  0
 12 21  2  0
 12 22  2  0
 15 23  2  0
 16 23  1  0
 17 24  2  0
 17 25  1  0
 18 26  1  0
 18 24  1  0
 19 27  1  0
 19 28  1  0
 20 29  2  0
 24 30  1  0
 25 31  1  0
 26 32  1  0
 27 33  2  0
 28 34  1  0
 28 35  1  0
 28 36  1  0
 29 33  1  0
 30 31  1  0
M  CHG  2  13  -1  37   1
M  END
>  <Formula>  (508) 
C25H17F3KNO6S

>  <FW>  (508) 
555.5641 (516.4663+39.0978)

>  <DSSTox_CID>  (508) 
27249

>  <NR-Aromatase>  (508) 
0

>  <NR-AR>  (508) 
0

>  <NR-AR-LBD>  (508) 
0

>  <NR-ER>  (508) 
0

>  <NR-ER-LBD>  (508) 
0

>  <NR-AhR>  (508) 
0

>  <SR-ATAD5>  (508) 
0

>  <SR-HSE>  (508) 
0

>  <SR-MMP>  (508) 
1

>  <SR-p53>  (508) 
0

$$$$
NCGC00168265-02
     RDKit          2D

 24 27  0  0  1  0  0  0  0  0999 V2000
    2.1427   -2.5344    0.0000 C   0  0  0  0  0  0  0  0  0  0  0  0
    2.8252   -1.3117    0.0000 C   0  0  0  0  0  0  0  0  0  0  0  0
    2.1427   -1.7213    0.0000 C   0  0  0  0  0  0  0  0  0  0  0  0
    2.1427   -4.1963    0.0000 C   0  0  0  0  0  0  0  0  0  0  0  0
    2.8252   -2.9558    0.0000 C   0  0  0  0  0  0  0  0  0  0  0  0
    1.4067   -2.9558    0.0000 C   0  0  0  0  0  0  0  0  0  0  0  0
    3.5434   -2.5344    0.0000 N   0  0  0  0  0  0  0  0  0  0  0  0
    1.4067   -3.7808    0.0000 C   0  0  0  0  0  0  0  0  0  0  0  0
    3.5256   -0.8725    0.0000 C   0  0  0  0  0  0  0  0  0  0  0  0
    2.8252   -3.7808    0.0000 C   0  0  0  0  0  0  0  0  0  0  0  0
    2.1427   -5.0273    0.0000 C   0  0  0  0  0  0  0  0  0  0  0  0
    0.7063   -5.0273    0.0000 N   0  0  0  0  0  0  0  0  0  0  0  0
    3.5434   -1.7213    0.0000 C   0  0  0  0  0  0  0  0  0  0  0  0
    0.7063   -4.1963    0.0000 C   0  0  0  0  0  0  0  0  0  0  0  0
    4.3328   -1.2227    0.0000 N   0  0  0  0  0  0  0  0  0  0  0  0
    3.5256    0.0000    0.0000 O   0  0  0  0  0  0  0  0  0  0  0  0
    0.7063   -2.5344    0.0000 C   0  0  0  0  0  0  0  0  0  0  0  0
    4.2735   -2.9677    0.0000 C   0  0  0  0  0  0  0  0  0  0  0  0
    0.0000   -2.9558    0.0000 C   0  0  0  0  0  0  0  0  0  0  0  0
    0.0000   -3.7808    0.0000 C   0  0  0  0  0  0  0  0  0  0  0  0
    5.1222   -0.7894    0.0000 C   0  0  0  0  0  0  0  0  0  0  0  0
    4.3328   -2.0655    0.0000 C   0  0  0  0  0  0  0  0  0  0  0  0
    5.1519   -2.5760    0.0000 C   0  0  0  0  0  0  0  0  0  0  0  0
    5.9354   -1.2227    0.0000 C   0  0  0  0  0  0  0  0  0  0  0  0
  1  3  2  0
  1  5  1  0
  1  6  1  0
  2  3  1  0
  2  9  1  1
  2 13  1  0
  4  8  1  0
  4 11  2  0
  4 10  1  0
  5  7  1  0
  5 10  1  6
  6  8  2  0
  6 17  1  0
  7 13  1  0
  7 18  1  0
  8 14  1  0
  9 15  1  0
  9 16  2  0
 11 12  1  0
 12 14  1  0
 14 20  2  0
 15 21  1  0
 15 22  1  0
 17 19  2  0
 19 20  1  0
 21 24  1  0
 22 23  1  0
M  END
>  <Formula>  (509) 
C20H25N3O

>  <FW>  (509) 
323.4320

>  <DSSTox_CID>  (509) 
3231

>  <NR-Aromatase>  (509) 
0

>  <NR-AR>  (509) 
0

>  <NR-AR-LBD>  (509) 
0

>  <NR-ER>  (509) 
0

>  <NR-ER-LBD>  (509) 
0

>  <NR-PPAR-gamma>  (509) 
0

>  <SR-ATAD5>  (509) 
0

>  <SR-HSE>  (509) 
0

>  <SR-MMP>  (509) 
1

>  <SR-p53>  (509) 
0

$$$$
NCGC00257268-01
     RDKit          2D

 48 53  0  0  1  0  0  0  0  0999 V2000
    2.1450   -4.1964    0.0000 C   0  0  0  0  0  0  0  0  0  0  0  0
    2.1450   -5.8422    0.0000 C   0  0  0  0  0  0  0  0  0  0  0  0
    1.9344   -6.6300    0.0000 C   0  0  0  0  0  0  0  0  0  0  0  0
    3.5646   -1.7316    0.0000 N   0  0  0  0  0  0  0  0  0  0  0  0
    1.4196   -5.4210    0.0000 C   0  0  0  0  0  0  0  0  0  0  0  0
    1.4196   -4.6098    0.0000 C   0  0  0  0  0  0  0  0  0  0  0  0
    2.8548   -4.6098    0.0000 C   0  0  0  0  0  0  0  0  0  0  0  0
    2.1450   -3.3696    0.0000 C   0  0  0  0  0  0  0  0  0  0  0  0
    0.9282   -6.6300    0.0000 N   0  0  0  0  0  0  0  0  0  0  0  0
    2.8548   -2.9640    0.0000 C   0  0  0  0  0  0  0  0  0  0  0  0
    3.5646   -4.1964    0.0000 N   0  0  0  0  0  0  0  0  0  0  0  0
    2.8548   -2.1372    0.0000 C   0  0  0  0  0  0  0  0  0  0  0  0
    0.7254   -5.8422    0.0000 C   0  0  0  0  0  0  0  0  0  0  0  0
    2.8548   -5.4210    0.0000 C   0  0  0  0  0  0  0  0  0  0  0  0
    3.5646   -3.3696    0.0000 C   0  0  0  0  0  0  0  0  0  0  0  0
    2.1450   -1.7316    0.0000 O   0  0  0  0  0  0  0  0  0  0  0  0
    2.4804   -7.2384    0.0000 Br  0  0  0  0  0  0  0  0  0  0  0  0
    0.7254   -4.1964    0.0000 C   0  0  0  0  0  0  0  0  0  0  0  0
    4.2744   -4.6098    0.0000 C   0  0  0  0  0  0  0  0  0  0  0  0
    0.0000   -5.4210    0.0000 C   0  0  0  0  0  0  0  0  0  0  0  0
    0.0000   -4.6098    0.0000 C   0  0  0  0  0  0  0  0  0  0  0  0
    5.6550   -2.1372    0.0000 N   0  0  0  0  0  0  0  0  0  0  0  0
    5.6550   -1.3104    0.0000 C   0  0  0  0  0  0  0  0  0  0  0  0
    4.3914   -1.7238    0.0000 C   0  0  0  0  0  0  0  0  0  0  0  0
    4.8672   -2.3946    0.0000 C   0  0  0  0  0  0  0  0  0  0  0  0
    4.8672   -1.0530    0.0000 O   0  0  0  0  0  0  0  0  0  0  0  0
    6.3804   -2.5506    0.0000 C   0  0  0  0  0  0  0  0  0  0  0  0
    7.0746   -2.1372    0.0000 C   0  0  0  0  0  0  0  0  0  0  0  0
    7.0746   -1.3104    0.0000 N   0  0  0  0  0  0  0  0  0  0  0  0
    6.3804   -0.9048    0.0000 C   0  0  0  0  0  0  0  0  0  0  0  0
    4.6254   -3.1746    0.0000 O   0  0  0  0  0  0  0  0  0  0  0  0
    7.8000   -2.5506    0.0000 O   0  0  0  0  0  0  0  0  0  0  0  0
    5.6940   -0.4602    0.0000 O   0  0  0  0  0  0  0  0  0  0  0  0
    6.3804   -3.3618    0.0000 C   0  0  0  0  0  0  0  0  0  0  0  0
    3.9702   -1.0218    0.0000 C   0  0  0  0  0  0  0  0  0  0  0  0
    7.6986   -0.7644    0.0000 C   0  0  0  0  0  0  0  0  0  0  0  0
    6.5286   -0.0936    0.0000 C   0  0  0  0  0  0  0  0  0  0  0  0
    7.3554    0.0000    0.0000 C   0  0  0  0  0  0  0  0  0  0  0  0
    7.0746   -3.7830    0.0000 C   0  0  0  0  0  0  0  0  0  0  0  0
    4.3680   -0.2886    0.0000 C   0  0  0  0  0  0  0  0  0  0  0  0
    3.1278   -1.0296    0.0000 C   0  0  0  0  0  0  0  0  0  0  0  0
    7.0746   -4.6098    0.0000 C   0  0  0  0  0  0  0  0  0  0  0  0
    7.8000   -3.3618    0.0000 C   0  0  0  0  0  0  0  0  0  0  0  0
    5.1012   -6.1932    0.0000 C   0  0  0  0  0  0  0  0  0  0  0  0
    5.9280   -6.1932    0.0000 S   0  0  0  0  0  0  0  0  0  0  0  0
    5.9280   -5.3664    0.0000 O   0  0  0  0  0  0  0  0  0  0  0  0
    5.9280   -7.0200    0.0000 O   0  0  0  0  0  0  0  0  0  0  0  0
    6.7548   -6.1932    0.0000 O   0  0  0  0  0  0  0  0  0  0  0  0
  1  8  2  0
  1  6  1  0
  1  7  1  0
  2 14  1  0
  2  3  2  0
  2  5  1  0
  3 17  1  0
  3  9  1  0
  4 12  1  0
 24  4  1  6
  5  6  2  0
  5 13  1  0
  6 18  1  0
  7 11  1  0
  7 14  1  6
  8 10  1  0
  9 13  1  0
 10 12  1  1
 10 15  1  0
 11 15  1  0
 11 19  1  0
 12 16  2  0
 13 20  2  0
 18 21  2  0
 20 21  1  0
 22 23  1  0
 22 25  1  0
 22 27  1  0
 23 26  1  0
 23 30  1  0
 23 33  1  6
 24 25  1  0
 24 35  1  0
 24 26  1  0
 25 31  2  0
 27 28  1  0
 27 34  1  6
 28 29  1  0
 28 32  2  0
 29 36  1  0
 29 30  1  0
 30 37  1  6
 34 39  1  0
 35 40  1  0
 35 41  1  0
 36 38  1  0
 37 38  1  0
 39 42  1  0
 39 43  1  0
 44 45  1  0
 45 46  2  0
 45 47  2  0
 45 48  1  0
M  END
>  <Formula>  (510) 
C33H44BrN5O8S

>  <FW>  (510) 
750.7002 (654.5945+96.1057)

>  <DSSTox_CID>  (510) 
197

>  <NR-Aromatase>  (510) 
1

>  <NR-AR>  (510) 
0

>  <NR-AR-LBD>  (510) 
0

>  <NR-ER>  (510) 
0

>  <NR-ER-LBD>  (510) 
0

>  <NR-AhR>  (510) 
0

>  <SR-ARE>  (510) 
1

>  <SR-HSE>  (510) 
0

>  <SR-MMP>  (510) 
1

>  <SR-p53>  (510) 
0

$$$$
NCGC00254151-01
     RDKit          2D

 20 23  0  0  0  0  0  0  0  0999 V2000
    2.5029   -0.8367    0.0000 C   0  0  0  0  0  0  0  0  0  0  0  0
    2.0178   -1.5046    0.0000 C   0  0  0  0  0  0  0  0  0  0  0  0
    2.1796   -0.0774    0.0000 C   0  0  0  0  0  0  0  0  0  0  0  0
    1.2022   -1.4132    0.0000 C   0  0  0  0  0  0  0  0  0  0  0  0
    1.3499    0.0000    0.0000 C   0  0  0  0  0  0  0  0  0  0  0  0
    0.8648   -0.6538    0.0000 C   0  0  0  0  0  0  0  0  0  0  0  0
    3.2904   -1.0968    0.0000 C   0  0  0  0  0  0  0  0  0  0  0  0
    3.2904   -1.9194    0.0000 C   0  0  0  0  0  0  0  0  0  0  0  0
    2.5029   -2.1655    0.0000 C   0  0  0  0  0  0  0  0  0  0  0  0
    4.0778   -0.8437    0.0000 N   0  0  0  0  0  0  0  0  0  0  0  0
    4.5629   -1.5046    0.0000 C   0  0  0  0  0  0  0  0  0  0  0  0
    4.0778   -2.1655    0.0000 S   0  0  0  0  0  0  0  0  0  0  0  0
    5.3785   -1.4835    0.0000 C   0  0  0  0  0  0  0  0  0  0  0  0
    5.8004   -0.7663    0.0000 C   0  0  0  0  0  0  0  0  0  0  0  0
    5.8004   -2.2006    0.0000 C   0  0  0  0  0  0  0  0  0  0  0  0
    6.6229   -0.7663    0.0000 C   0  0  0  0  0  0  0  0  0  0  0  0
    6.6159   -2.2076    0.0000 C   0  0  0  0  0  0  0  0  0  0  0  0
    7.0308   -1.4835    0.0000 C   0  0  0  0  0  0  0  0  0  0  0  0
    0.0000   -0.4359    0.0000 Cl  0  0  0  0  0  0  0  0  0  0  0  0
    3.2904   -0.2672    0.0000 O   0  0  0  0  0  0  0  0  0  0  0  0
  1  3  2  0
  1  7  1  0
  1  2  1  0
  2  4  2  0
  2  9  1  0
  3  5  1  0
  4  6  1  0
  5  6  2  0
  6 19  1  0
  7 10  1  0
  7  8  1  0
  7 20  1  0
  8  9  1  0
  8 12  1  0
 10 11  2  0
 11 12  1  0
 11 13  1  0
 13 14  2  0
 13 15  1  0
 14 16  1  0
 15 17  2  0
 16 18  2  0
 17 18  1  0
M  END
>  <Formula>  (511) 
C16H12ClNOS

>  <FW>  (511) 
301.7906

>  <DSSTox_CID>  (511) 
27338

>  <NR-AR>  (511) 
0

>  <NR-AR-LBD>  (511) 
0

>  <NR-ER>  (511) 
1

>  <NR-ER-LBD>  (511) 
0

>  <NR-PPAR-gamma>  (511) 
0

>  <NR-AhR>  (511) 
1

>  <SR-ARE>  (511) 
1

>  <SR-ATAD5>  (511) 
0

>  <SR-HSE>  (511) 
0

>  <SR-MMP>  (511) 
1

>  <SR-p53>  (511) 
0

$$$$
NCGC00257613-01
     RDKit          2D

 28 29  0  0  0  0  0  0  0  0999 V2000
    4.3235   -3.7443    0.0000 N   0  0  0  0  0  0  0  0  0  0  0  0
    4.3235   -2.9193    0.0000 C   0  0  0  0  0  0  0  0  0  0  0  0
    2.9035   -3.7443    0.0000 C   0  0  0  0  0  0  0  0  0  0  0  0
    5.0453   -2.5068    0.0000 C   0  0  0  0  0  0  0  0  0  0  0  0
    3.6095   -4.1568    0.0000 C   0  0  0  0  0  0  0  0  0  0  0  0
    3.6095   -2.5068    0.0000 C   0  0  0  0  0  0  0  0  0  0  0  0
    5.7673   -2.9193    0.0000 C   0  0  0  0  0  0  0  0  0  0  0  0
    2.1816   -4.1568    0.0000 C   0  0  0  0  0  0  0  0  0  0  0  0
    2.9035   -2.9193    0.0000 C   0  0  0  0  0  0  0  0  0  0  0  0
    5.0453   -1.6659    0.0000 C   0  0  0  0  0  0  0  0  0  0  0  0
    5.7673   -1.2534    0.0000 C   0  0  0  0  0  0  0  0  0  0  0  0
    6.4813   -2.5068    0.0000 C   0  0  0  0  0  0  0  0  0  0  0  0
    6.4813   -1.6659    0.0000 C   0  0  0  0  0  0  0  0  0  0  0  0
    5.0453   -4.1568    0.0000 C   0  0  0  0  0  0  0  0  0  0  0  0
    1.4756   -3.7443    0.0000 C   0  0  0  0  0  0  0  0  0  0  0  0
    5.7673   -3.7443    0.0000 C   0  0  0  0  0  0  0  0  0  0  0  0
    2.1816   -2.5068    0.0000 C   0  0  0  0  0  0  0  0  0  0  0  0
    1.4756   -2.9193    0.0000 C   0  0  0  0  0  0  0  0  0  0  0  0
    2.1816   -4.9898    0.0000 O   0  0  0  0  0  0  0  0  0  0  0  0
    5.7673   -0.4204    0.0000 O   0  0  0  0  0  0  0  0  0  0  0  0
    7.2190   -1.2296    0.0000 O   0  0  0  0  0  0  0  0  0  0  0  0
    0.7219   -4.1807    0.0000 O   0  0  0  0  0  0  0  0  0  0  0  0
    2.9035   -5.4103    0.0000 C   0  0  0  0  0  0  0  0  0  0  0  0
    6.4574    0.0000    0.0000 C   0  0  0  0  0  0  0  0  0  0  0  0
    7.9330   -1.6659    0.0000 C   0  0  0  0  0  0  0  0  0  0  0  0
    0.0000   -3.7602    0.0000 C   0  0  0  0  0  0  0  0  0  0  0  0
    3.7285   -1.0234    0.0000 Cl  0  0  0  0  0  0  0  0  0  0  0  0
    7.7029   -3.4667    0.0000 O   0  0  0  0  0  0  0  0  0  0  0  0
  1  2  1  0
  1  5  2  0
  1 14  1  0
  2  4  1  0
  2  6  2  0
  3  5  1  0
  3  8  2  0
  3  9  1  0
  4 10  2  0
  4  7  1  0
  6  9  1  0
  7 16  1  0
  7 12  2  0
  8 15  1  0
  8 19  1  0
  9 17  2  0
 10 11  1  0
 11 20  1  0
 11 13  2  0
 12 13  1  0
 13 21  1  0
 14 16  1  0
 15 22  1  0
 15 18  2  0
 17 18  1  0
 19 23  1  0
 20 24  1  0
 21 25  1  0
 22 26  1  0
M  CHG  2   1   1  27  -1
M  END
>  <Formula>  (512) 
C21H24ClNO5

>  <FW>  (512) 
405.8720 (352.4031+35.4535+18.0153)

>  <DSSTox_CID>  (512) 
27845

>  <NR-Aromatase>  (512) 
0

>  <NR-AR>  (512) 
0

>  <NR-AR-LBD>  (512) 
0

>  <NR-ER>  (512) 
0

>  <NR-ER-LBD>  (512) 
0

>  <NR-PPAR-gamma>  (512) 
0

>  <SR-ARE>  (512) 
0

>  <SR-ATAD5>  (512) 
0

>  <SR-HSE>  (512) 
0

>  <SR-MMP>  (512) 
1

>  <SR-p53>  (512) 
0

$$$$
NCGC00256316-01
     RDKit          2D

 23 25  0  0  0  0  0  0  0  0999 V2000
    1.4096   -1.4662    0.0000 C   0  0  0  0  0  0  0  0  0  0  0  0
    1.4096   -2.3021    0.0000 C   0  0  0  0  0  0  0  0  0  0  0  0
    2.1108   -1.0554    0.0000 C   0  0  0  0  0  0  0  0  0  0  0  0
    0.6729   -1.0554    0.0000 C   0  0  0  0  0  0  0  0  0  0  0  0
    2.1108   -2.7412    0.0000 S   0  0  0  0  0  0  0  0  0  0  0  0
    0.6729   -2.7129    0.0000 C   0  0  0  0  0  0  0  0  0  0  0  0
    2.8262   -1.4662    0.0000 C   0  0  0  0  0  0  0  0  0  0  0  0
    2.1108   -0.2125    0.0000 O   0  0  0  0  0  0  0  0  0  0  0  0
    0.0000   -1.4662    0.0000 C   0  0  0  0  0  0  0  0  0  0  0  0
    2.8262   -2.3304    0.0000 N   0  0  0  0  0  0  0  0  0  0  0  0
    2.4933   -3.4425    0.0000 O   0  0  0  0  0  0  0  0  0  0  0  0
    1.6858   -3.4425    0.0000 O   0  0  0  0  0  0  0  0  0  0  0  0
    0.0000   -2.3021    0.0000 C   0  0  0  0  0  0  0  0  0  0  0  0
    3.5558   -1.0554    0.0000 C   0  0  0  0  0  0  0  0  0  0  0  0
    3.5558   -2.7129    0.0000 C   0  0  0  0  0  0  0  0  0  0  0  0
    4.2853   -1.4662    0.0000 N   0  0  0  0  0  0  0  0  0  0  0  0
    3.5558   -0.2125    0.0000 O   0  0  0  0  0  0  0  0  0  0  0  0
    4.9937   -1.0554    0.0000 C   0  0  0  0  0  0  0  0  0  0  0  0
    5.0007   -0.2267    0.0000 N   0  0  0  0  0  0  0  0  0  0  0  0
    5.7515   -1.3033    0.0000 S   0  0  0  0  0  0  0  0  0  0  0  0
    5.7728    0.0000    0.0000 C   0  0  0  0  0  0  0  0  0  0  0  0
    6.2686   -0.6588    0.0000 C   0  0  0  0  0  0  0  0  0  0  0  0
    7.0832   -0.6375    0.0000 C   0  0  0  0  0  0  0  0  0  0  0  0
  1  2  2  0
  1  3  1  0
  1  4  1  0
  2  5  1  0
  2  6  1  0
  3  7  2  0
  3  8  1  0
  4  9  2  0
  5 10  1  0
  5 11  2  0
  5 12  2  0
  6 13  2  0
  7 14  1  0
  7 10  1  0
  9 13  1  0
 10 15  1  0
 14 16  1  0
 14 17  2  0
 16 18  1  0
 18 19  2  0
 18 20  1  0
 19 21  1  0
 20 22  1  0
 21 22  2  0
 22 23  1  0
M  END
>  <Formula>  (513) 
C14H13N3O4S2

>  <FW>  (513) 
351.4007

>  <DSSTox_CID>  (513) 
803

>  <NR-AR>  (513) 
0

>  <NR-AR-LBD>  (513) 
0

>  <NR-ER>  (513) 
0

>  <NR-ER-LBD>  (513) 
0

>  <NR-PPAR-gamma>  (513) 
0

>  <SR-ARE>  (513) 
0

>  <SR-ATAD5>  (513) 
0

>  <SR-HSE>  (513) 
0

>  <SR-MMP>  (513) 
1

>  <SR-p53>  (513) 
0

$$$$
NCGC00254537-01
     RDKit          2D

 59 63  0  0  1  0  0  0  0  0999 V2000
    3.5660   -4.9218    0.0000 C   0  0  0  0  0  0  0  0  0  0  0  0
    5.7112   -3.7053    0.0000 C   0  0  0  0  0  0  0  0  0  0  0  0
    5.7112   -4.5039    0.0000 C   0  0  0  0  0  0  0  0  0  0  0  0
    2.8695   -4.5039    0.0000 C   0  0  0  0  0  0  0  0  0  0  0  0
    4.2718   -3.7053    0.0000 C   0  0  0  0  0  0  0  0  0  0  0  0
    4.2718   -4.5039    0.0000 C   0  0  0  0  0  0  0  0  0  0  0  0
    2.1359   -5.7298    0.0000 C   0  0  0  0  0  0  0  0  0  0  0  0
    6.4170   -3.2781    0.0000 N   0  0  0  0  0  0  0  0  0  0  0  0
    2.1359   -4.9218    0.0000 O   0  0  0  0  0  0  0  0  0  0  0  0
    4.9961   -3.2781    0.0000 C   0  0  0  0  0  0  0  0  0  0  0  0
    4.9961   -4.9218    0.0000 C   0  0  0  0  0  0  0  0  0  0  0  0
    3.5660   -3.2781    0.0000 C   0  0  0  0  0  0  0  0  0  0  0  0
    3.5660   -5.7298    0.0000 C   0  0  0  0  0  0  0  0  0  0  0  0
    2.8695   -3.7053    0.0000 C   0  0  0  0  0  0  0  0  0  0  0  0
    2.1359   -2.4609    0.0000 C   0  0  0  0  0  0  0  0  0  0  0  0
    6.4170   -2.4609    0.0000 C   0  0  0  0  0  0  0  0  0  0  0  0
    2.8695   -2.0430    0.0000 C   0  0  0  0  0  0  0  0  0  0  0  0
    3.5660   -0.8079    0.0000 C   0  0  0  0  0  0  0  0  0  0  0  0
    2.8695   -1.2351    0.0000 C   0  0  0  0  0  0  0  0  0  0  0  0
    6.4355   -4.9218    0.0000 C   0  0  0  0  0  0  0  0  0  0  0  0
    2.1359   -3.2781    0.0000 C   0  0  0  0  0  0  0  0  0  0  0  0
    7.1320   -6.1476    0.0000 N   0  0  0  0  0  0  0  0  0  0  0  0
    4.2718   -1.2351    0.0000 C   0  0  0  0  0  0  0  0  0  0  0  0
    6.4355   -5.7390    0.0000 N   0  0  0  0  0  0  0  0  0  0  0  0
    7.1227   -2.0430    0.0000 C   0  0  0  0  0  0  0  0  0  0  0  0
    0.7336   -5.7298    0.0000 O   0  0  0  0  0  0  0  0  0  0  0  0
    8.5714   -6.9741    0.0000 N   0  0  0  0  0  0  0  0  0  0  0  0
    0.7336   -4.9218    0.0000 C   0  0  0  0  0  0  0  0  0  0  0  0
    1.4394   -4.5039    0.0000 C   0  0  0  0  0  0  0  0  0  0  0  0
    1.4394   -3.7053    0.0000 C   0  0  0  0  0  0  0  0  0  0  0  0
    6.4170   -0.8079    0.0000 C   0  0  0  0  0  0  0  0  0  0  0  0
    4.2811   -6.1290    0.0000 O   0  0  0  0  0  0  0  0  0  0  0  0
    7.1227   -1.2351    0.0000 C   0  0  0  0  0  0  0  0  0  0  0  0
    5.7112   -2.0430    0.0000 O   0  0  0  0  0  0  0  0  0  0  0  0
    7.1320   -6.9741    0.0000 C   0  0  0  0  0  0  0  0  0  0  0  0
    7.8471   -5.7298    0.0000 C   0  0  0  0  0  0  0  0  0  0  0  0
    4.9961   -0.8079    0.0000 C   0  0  0  0  0  0  0  0  0  0  0  0
    5.7112   -1.2351    0.0000 C   0  0  0  0  0  0  0  0  0  0  0  0
    4.9961   -2.4609    0.0000 O   0  0  0  0  0  0  0  0  0  0  0  0
    4.9961   -5.7390    0.0000 O   0  0  0  0  0  0  0  0  0  0  0  0
    3.5660   -2.4609    0.0000 O   0  0  0  0  0  0  0  0  0  0  0  0
    8.5714   -6.1476    0.0000 C   0  0  0  0  0  0  0  0  0  0  0  0
    7.8471   -7.3920    0.0000 C   0  0  0  0  0  0  0  0  0  0  0  0
    2.1266   -0.8079    0.0000 O   0  0  0  0  0  0  0  0  0  0  0  0
    4.2718   -2.0430    0.0000 O   0  0  0  0  0  0  0  0  0  0  0  0
    2.1359   -6.5376    0.0000 C   0  0  0  0  0  0  0  0  0  0  0  0
    2.8695   -2.8695    0.0000 C   0  0  0  0  0  0  0  0  0  0  0  0
    3.5660    0.0000    0.0000 C   0  0  0  0  0  0  0  0  0  0  0  0
    0.7150   -3.2781    0.0000 O   0  0  0  0  0  0  0  0  0  0  0  0
    9.2865   -7.3920    0.0000 C   0  0  0  0  0  0  0  0  0  0  0  0
    7.8471   -2.4609    0.0000 C   0  0  0  0  0  0  0  0  0  0  0  0
    4.9961    0.0000    0.0000 C   0  0  0  0  0  0  0  0  0  0  0  0
    0.0000   -3.7053    0.0000 C   0  0  0  0  0  0  0  0  0  0  0  0
    3.6031   -1.6251    0.0000 C   0  0  0  0  0  0  0  0  0  0  0  0
    1.4115   -2.0059    0.0000 O   0  0  0  0  0  0  0  0  0  0  0  0
    0.5665   -2.0059    0.0000 C   0  0  0  0  0  0  0  0  0  0  0  0
    0.1300   -1.2815    0.0000 O   0  0  0  0  0  0  0  0  0  0  0  0
    0.1578   -2.7581    0.0000 C   0  0  0  0  0  0  0  0  0  0  0  0
    2.1359   -4.1232    0.0000 C   0  0  0  0  0  0  0  0  0  0  0  0
  1  4  2  0
  1  6  1  0
  1 13  1  0
  2  3  1  0
  2  8  1  0
  2 10  2  0
  3 11  2  0
  3 20  1  0
  4  9  1  0
  4 14  1  0
  5  6  2  0
  5 10  1  0
  5 12  1  0
  6 11  1  0
  7 13  1  0
  7 26  1  0
  7 46  1  6
  7  9  1  0
  8 16  1  0
 10 39  1  0
 11 40  1  0
 12 41  1  0
 12 14  2  0
 13 32  2  0
 14 47  1  0
 15 21  1  0
 15 17  1  0
 15 55  1  1
 16 25  1  0
 16 34  2  0
 17 19  1  0
 17 54  1  1
 18 19  1  0
 18 23  1  0
 18 48  1  6
 19 44  1  6
 20 24  2  0
 21 30  1  0
 21 59  1  6
 22 24  1  0
 22 35  1  0
 22 36  1  0
 23 45  1  6
 23 37  1  0
 25 33  2  0
 25 51  1  0
 26 28  1  0
 27 42  1  0
 27 50  1  0
 27 43  1  0
 28 29  2  0
 29 30  1  0
 30 49  1  6
 31 33  1  0
 31 38  2  0
 35 43  1  0
 36 42  1  0
 37 38  1  0
 37 52  1  1
 49 53  1  0
 55 56  1  0
 56 57  2  0
 56 58  1  0
M  END
>  <Formula>  (514) 
C43H58N4O12

>  <FW>  (514) 
822.9402

>  <DSSTox_CID>  (514) 
1244

>  <NR-Aromatase>  (514) 
0

>  <NR-AR>  (514) 
0

>  <NR-AR-LBD>  (514) 
0

>  <NR-ER-LBD>  (514) 
0

>  <NR-PPAR-gamma>  (514) 
0

>  <NR-AhR>  (514) 
0

>  <SR-ARE>  (514) 
0

>  <SR-ATAD5>  (514) 
0

>  <SR-HSE>  (514) 
0

>  <SR-MMP>  (514) 
1

>  <SR-p53>  (514) 
0

$$$$
NCGC00257705-01
     RDKit          2D

 23 25  0  0  0  0  0  0  0  0999 V2000
    2.8901   -2.9560    0.0000 O   0  0  0  0  0  0  0  0  0  0  0  0
    2.4744   -2.2434    0.0000 C   0  0  0  0  0  0  0  0  0  0  0  0
    2.8901   -1.5242    0.0000 C   0  0  0  0  0  0  0  0  0  0  0  0
    3.7148   -1.5242    0.0000 C   0  0  0  0  0  0  0  0  0  0  0  0
    4.1240   -2.2434    0.0000 O   0  0  0  0  0  0  0  0  0  0  0  0
    4.1240   -0.8116    0.0000 N   0  0  0  0  0  0  0  0  0  0  0  0
    4.9487   -0.8116    0.0000 C   0  0  0  0  0  0  0  0  0  0  0  0
    5.3644   -0.0990    0.0000 N   0  0  0  0  0  0  0  0  0  0  0  0
    6.1826   -0.0990    0.0000 C   0  0  0  0  0  0  0  0  0  0  0  0
    6.5983   -0.8116    0.0000 C   0  0  0  0  0  0  0  0  0  0  0  0
    6.1826   -1.5242    0.0000 C   0  0  0  0  0  0  0  0  0  0  0  0
    5.3644   -1.5242    0.0000 C   0  0  0  0  0  0  0  0  0  0  0  0
    2.4744   -0.8116    0.0000 N   0  0  0  0  0  0  0  0  0  0  0  0
    1.6496   -0.8116    0.0000 S   0  0  0  0  0  0  0  0  0  0  0  0
    0.8776   -0.5278    0.0000 O   0  0  0  0  0  0  0  0  0  0  0  0
    1.7947    0.0000    0.0000 O   0  0  0  0  0  0  0  0  0  0  0  0
    1.2339   -1.5242    0.0000 C   0  0  0  0  0  0  0  0  0  0  0  0
    1.6496   -2.2434    0.0000 C   0  0  0  0  0  0  0  0  0  0  0  0
    1.2339   -2.9560    0.0000 C   0  0  0  0  0  0  0  0  0  0  0  0
    0.4091   -2.9560    0.0000 C   0  0  0  0  0  0  0  0  0  0  0  0
    0.0000   -2.2434    0.0000 C   0  0  0  0  0  0  0  0  0  0  0  0
    0.4091   -1.5242    0.0000 C   0  0  0  0  0  0  0  0  0  0  0  0
    2.8901   -0.0990    0.0000 C   0  0  0  0  0  0  0  0  0  0  0  0
  1  2  1  0
  2  3  2  0
  2 18  1  0
  3  4  1  0
  3 13  1  0
  4  5  2  0
  4  6  1  0
  6  7  1  0
  7  8  2  0
  7 12  1  0
  8  9  1  0
  9 10  2  0
 10 11  1  0
 11 12  2  0
 13 14  1  0
 13 23  1  0
 14 15  2  0
 14 16  2  0
 14 17  1  0
 17 18  2  0
 17 22  1  0
 18 19  1  0
 19 20  2  0
 20 21  1  0
 21 22  2  0
M  END
>  <Formula>  (515) 
C15H13N3O4S

>  <FW>  (515) 
331.3464

>  <DSSTox_CID>  (515) 
1170

>  <NR-AR>  (515) 
0

>  <NR-AR-LBD>  (515) 
0

>  <NR-ER>  (515) 
0

>  <NR-ER-LBD>  (515) 
0

>  <NR-PPAR-gamma>  (515) 
0

>  <NR-AhR>  (515) 
1

>  <SR-ATAD5>  (515) 
0

>  <SR-HSE>  (515) 
0

>  <SR-MMP>  (515) 
1

>  <SR-p53>  (515) 
0

$$$$
NCGC00254438-01
     RDKit          2D

 41 43  0  0  1  0  0  0  0  0999 V2000
    3.5743   -4.1143    0.0000 C   0  0  0  0  0  0  0  0  0  0  0  0
    2.8629   -4.5257    0.0000 C   0  0  0  0  0  0  0  0  0  0  0  0
    3.5743   -3.2914    0.0000 C   0  0  0  0  0  0  0  0  0  0  0  0
    4.2943   -4.5257    0.0000 C   0  0  0  0  0  0  0  0  0  0  0  0
    2.1429   -4.1143    0.0000 N   0  0  0  0  0  0  0  0  0  0  0  0
    2.8629   -5.3486    0.0000 C   0  0  0  0  0  0  0  0  0  0  0  0
    4.2943   -2.8800    0.0000 N   0  0  0  0  0  0  0  0  0  0  0  0
    2.8629   -2.8800    0.0000 C   0  0  0  0  0  0  0  0  0  0  0  0
    4.2943   -5.3486    0.0000 C   0  0  0  0  0  0  0  0  0  0  0  0
    2.1429   -3.2914    0.0000 C   0  0  0  0  0  0  0  0  0  0  0  0
    1.4314   -4.5257    0.0000 C   0  0  0  0  0  0  0  0  0  0  0  0
    3.5743   -5.7686    0.0000 C   0  0  0  0  0  0  0  0  0  0  0  0
    5.0057   -3.2914    0.0000 C   0  0  0  0  0  0  0  0  0  0  0  0
    4.2943   -2.0486    0.0000 C   0  0  0  0  0  0  0  0  0  0  0  0
    5.0057   -5.7686    0.0000 C   0  0  0  0  0  0  0  0  0  0  0  0
    1.4314   -2.8800    0.0000 C   0  0  0  0  0  0  0  0  0  0  0  0
    1.4314   -5.3486    0.0000 O   0  0  0  0  0  0  0  0  0  0  0  0
    0.7114   -4.1143    0.0000 O   0  0  0  0  0  0  0  0  0  0  0  0
    5.7086   -2.8800    0.0000 C   0  0  0  0  0  0  0  0  0  0  0  0
    3.5743   -1.6457    0.0000 C   0  0  0  0  0  0  0  0  0  0  0  0
    5.0057   -1.6457    0.0000 O   0  0  0  0  0  0  0  0  0  0  0  0
    4.5857   -6.4714    0.0000 F   0  0  0  0  0  0  0  0  0  0  0  0
    5.4171   -5.0486    0.0000 F   0  0  0  0  0  0  0  0  0  0  0  0
    5.7086   -6.1714    0.0000 F   0  0  0  0  0  0  0  0  0  0  0  0
    1.4314   -2.0486    0.0000 C   0  0  0  0  0  0  0  0  0  0  0  0
    0.7114   -5.7686    0.0000 C   0  0  0  0  0  0  0  0  0  0  0  0
    5.7086   -2.0486    0.0000 C   0  0  0  0  0  0  0  0  0  0  0  0
    6.4286   -3.2914    0.0000 C   0  0  0  0  0  0  0  0  0  0  0  0
    0.0000   -5.3486    0.0000 C   0  0  0  0  0  0  0  0  0  0  0  0
    0.7114   -6.5914    0.0000 C   0  0  0  0  0  0  0  0  0  0  0  0
    6.4286   -1.6457    0.0000 C   0  0  0  0  0  0  0  0  0  0  0  0
    7.1400   -2.8800    0.0000 C   0  0  0  0  0  0  0  0  0  0  0  0
    7.1400   -2.0486    0.0000 C   0  0  0  0  0  0  0  0  0  0  0  0
    6.4286   -0.8228    0.0000 C   0  0  0  0  0  0  0  0  0  0  0  0
    7.8600   -3.2914    0.0000 C   0  0  0  0  0  0  0  0  0  0  0  0
    7.2515   -0.8228    0.0000 F   0  0  0  0  0  0  0  0  0  0  0  0
    5.6057   -0.8228    0.0000 F   0  0  0  0  0  0  0  0  0  0  0  0
    6.4286    0.0000    0.0000 F   0  0  0  0  0  0  0  0  0  0  0  0
    7.4486   -4.0029    0.0000 F   0  0  0  0  0  0  0  0  0  0  0  0
    8.2715   -2.5800    0.0000 F   0  0  0  0  0  0  0  0  0  0  0  0
    8.5714   -3.7029    0.0000 F   0  0  0  0  0  0  0  0  0  0  0  0
  1  2  1  0
  1  3  1  0
  1  4  2  0
  2  5  1  0
  2  6  2  0
  3  7  1  6
  3  8  1  0
  4  9  1  0
  5 10  1  0
  5 11  1  0
  6 12  1  0
  7 13  1  0
  7 14  1  0
  8 10  1  0
  9 15  1  0
  9 12  2  0
 10 16  1  6
 11 17  1  0
 11 18  2  0
 13 19  1  0
 14 20  1  0
 14 21  2  0
 15 22  1  0
 15 23  1  0
 15 24  1  0
 16 25  1  0
 17 26  1  0
 19 27  2  0
 19 28  1  0
 26 29  1  0
 26 30  1  0
 27 31  1  0
 28 32  2  0
 31 33  2  0
 31 34  1  0
 32 35  1  0
 32 33  1  0
 34 36  1  0
 34 37  1  0
 34 38  1  0
 35 39  1  0
 35 40  1  0
 35 41  1  0
M  END
>  <Formula>  (516) 
C27H27F9N2O3

>  <FW>  (516) 
598.5005

>  <DSSTox_CID>  (516) 
27279

>  <NR-Aromatase>  (516) 
0

>  <NR-AR>  (516) 
0

>  <NR-AR-LBD>  (516) 
0

>  <NR-ER>  (516) 
0

>  <NR-ER-LBD>  (516) 
0

>  <NR-PPAR-gamma>  (516) 
0

>  <NR-AhR>  (516) 
0

>  <SR-ARE>  (516) 
0

>  <SR-ATAD5>  (516) 
0

>  <SR-HSE>  (516) 
0

>  <SR-MMP>  (516) 
1

>  <SR-p53>  (516) 
0

$$$$
NCGC00254640-01
     RDKit          2D

 23 26  0  0  0  0  0  0  0  0999 V2000
    2.7236   -1.4552    0.0000 C   0  0  0  0  0  0  0  0  0  0  0  0
    1.4358   -1.0237    0.0000 C   0  0  0  0  0  0  0  0  0  0  0  0
    2.2149   -0.7919    0.0000 C   0  0  0  0  0  0  0  0  0  0  0  0
    1.4358   -1.8929    0.0000 C   0  0  0  0  0  0  0  0  0  0  0  0
    2.2149   -2.1248    0.0000 C   0  0  0  0  0  0  0  0  0  0  0  0
    0.7147   -0.6245    0.0000 C   0  0  0  0  0  0  0  0  0  0  0  0
    0.7147   -2.2921    0.0000 C   0  0  0  0  0  0  0  0  0  0  0  0
    0.0000   -1.8929    0.0000 C   0  0  0  0  0  0  0  0  0  0  0  0
    0.0000   -1.0237    0.0000 C   0  0  0  0  0  0  0  0  0  0  0  0
    2.4918   -2.9167    0.0000 O   0  0  0  0  0  0  0  0  0  0  0  0
    2.4918    0.0000    0.0000 O   0  0  0  0  0  0  0  0  0  0  0  0
    3.9726   -0.7340    0.0000 N   0  0  0  0  0  0  0  0  0  0  0  0
    4.8097   -0.7340    0.0000 C   0  0  0  0  0  0  0  0  0  0  0  0
    5.2089   -1.4358    0.0000 C   0  0  0  0  0  0  0  0  0  0  0  0
    3.5413   -1.4552    0.0000 C   0  0  0  0  0  0  0  0  0  0  0  0
    5.1895   -0.0193    0.0000 C   0  0  0  0  0  0  0  0  0  0  0  0
    6.0266   -1.4552    0.0000 C   0  0  0  0  0  0  0  0  0  0  0  0
    4.8097   -2.1634    0.0000 C   0  0  0  0  0  0  0  0  0  0  0  0
    3.9726   -2.1634    0.0000 C   0  0  0  0  0  0  0  0  0  0  0  0
    6.4387   -0.7340    0.0000 C   0  0  0  0  0  0  0  0  0  0  0  0
    6.0266   -0.0193    0.0000 C   0  0  0  0  0  0  0  0  0  0  0  0
    5.2089   -2.8780    0.0000 Br  0  0  0  0  0  0  0  0  0  0  0  0
    3.5606   -2.8974    0.0000 O   0  0  0  0  0  0  0  0  0  0  0  0
  1  3  1  0
  1  5  1  0
  1 15  1  0
  2  3  1  0
  2  4  2  0
  2  6  1  0
  3 11  2  0
  4  5  1  0
  4  7  1  0
  5 10  2  0
  6  9  2  0
  7  8  2  0
  8  9  1  0
 12 13  2  0
 12 15  1  0
 13 14  1  0
 13 16  1  0
 14 17  1  0
 14 18  2  0
 15 19  2  0
 16 21  2  0
 17 20  2  0
 18 19  1  0
 18 22  1  0
 19 23  1  0
 20 21  1  0
M  END
>  <Formula>  (517) 
C18H10BrNO3

>  <FW>  (517) 
368.1809

>  <DSSTox_CID>  (517) 
24503

>  <NR-Aromatase>  (517) 
0

>  <NR-AR>  (517) 
0

>  <NR-AR-LBD>  (517) 
0

>  <NR-ER>  (517) 
0

>  <NR-ER-LBD>  (517) 
0

>  <NR-PPAR-gamma>  (517) 
0

>  <NR-AhR>  (517) 
1

>  <SR-ARE>  (517) 
1

>  <SR-ATAD5>  (517) 
1

>  <SR-HSE>  (517) 
0

>  <SR-MMP>  (517) 
1

>  <SR-p53>  (517) 
0

$$$$
NCGC00166288-01
     RDKit          2D

 26 28  0  0  0  0  0  0  0  0999 V2000
    3.8551   -1.1881    0.0000 I   0  0  0  0  0  0  0  0  0  0  0  0
    5.1887   -2.6833    0.0000 C   0  0  0  0  0  0  0  0  0  0  0  0
    5.0028   -1.8750    0.0000 C   0  0  0  0  0  0  0  0  0  0  0  0
    5.6251   -1.3174    0.0000 N   0  0  0  0  0  0  0  0  0  0  0  0
    5.5362   -0.5091    0.0000 C   0  0  0  0  0  0  0  0  0  0  0  0
    6.2959   -0.1697    0.0000 S   0  0  0  0  0  0  0  0  0  0  0  0
    6.8455   -0.7759    0.0000 C   0  0  0  0  0  0  0  0  0  0  0  0
    7.6780   -0.7759    0.0000 C   0  0  0  0  0  0  0  0  0  0  0  0
    8.0821   -1.4871    0.0000 C   0  0  0  0  0  0  0  0  0  0  0  0
    7.6780   -2.2064    0.0000 C   0  0  0  0  0  0  0  0  0  0  0  0
    6.8455   -2.2064    0.0000 C   0  0  0  0  0  0  0  0  0  0  0  0
    6.4333   -1.4871    0.0000 C   0  0  0  0  0  0  0  0  0  0  0  0
    4.8088   -0.0889    0.0000 C   0  0  0  0  0  0  0  0  0  0  0  0
    4.0976   -0.4930    0.0000 C   0  0  0  0  0  0  0  0  0  0  0  0
    3.3864   -0.0889    0.0000 C   0  0  0  0  0  0  0  0  0  0  0  0
    2.6348   -0.4284    0.0000 C   0  0  0  0  0  0  0  0  0  0  0  0
    2.4650   -1.2285    0.0000 N   0  0  0  0  0  0  0  0  0  0  0  0
    3.0146   -1.8508    0.0000 C   0  0  0  0  0  0  0  0  0  0  0  0
    2.7640   -2.6348    0.0000 C   0  0  0  0  0  0  0  0  0  0  0  0
    1.6406   -1.3174    0.0000 C   0  0  0  0  0  0  0  0  0  0  0  0
    1.1638   -1.9882    0.0000 C   0  0  0  0  0  0  0  0  0  0  0  0
    0.3395   -1.8993    0.0000 C   0  0  0  0  0  0  0  0  0  0  0  0
    0.0000   -1.1396    0.0000 C   0  0  0  0  0  0  0  0  0  0  0  0
    0.4849   -0.4768    0.0000 C   0  0  0  0  0  0  0  0  0  0  0  0
    1.3093   -0.5657    0.0000 C   0  0  0  0  0  0  0  0  0  0  0  0
    1.9154    0.0000    0.0000 S   0  0  0  0  0  0  0  0  0  0  0  0
  2  3  1  0
  3  4  1  0
  4  5  1  0
  4 12  1  0
  5  6  1  0
  5 13  2  3
  6  7  1  0
  7  8  2  0
  7 12  1  0
  8  9  1  0
  9 10  2  0
 10 11  1  0
 11 12  2  0
 13 14  1  0
 14 15  2  3
 15 16  1  0
 16 17  2  0
 16 26  1  0
 17 18  1  0
 17 20  1  0
 18 19  1  0
 20 21  2  0
 20 25  1  0
 21 22  1  0
 22 23  2  0
 23 24  1  0
 24 25  2  0
 25 26  1  0
M  CHG  2   1  -1  17   1
M  END
>  <Formula>  (518) 
C21H21IN2S2

>  <FW>  (518) 
492.4393 (126.9050+365.5343)

>  <DSSTox_CID>  (518) 
26591

>  <NR-AR>  (518) 
0

>  <SR-p53>  (518) 
1

$$$$
NCGC00185752-01
     RDKit          2D

 39 43  0  0  1  0  0  0  0  0999 V2000
    4.2848   -1.5535    0.0000 C   0  0  0  0  0  0  0  0  0  0  0  0
    4.4654   -0.7442    0.0000 C   0  0  0  0  0  0  0  0  0  0  0  0
    4.7906   -2.1966    0.0000 C   0  0  0  0  0  0  0  0  0  0  0  0
    5.2097   -0.3902    0.0000 C   0  0  0  0  0  0  0  0  0  0  0  0
    5.6143   -2.1966    0.0000 C   0  0  0  0  0  0  0  0  0  0  0  0
    6.1346   -1.5535    0.0000 N   0  0  0  0  0  0  0  0  0  0  0  0
    5.9539   -0.7442    0.0000 C   0  0  0  0  0  0  0  0  0  0  0  0
    3.4900   -1.7920    0.0000 C   0  0  0  0  0  0  0  0  0  0  0  0
    2.8903   -1.2356    0.0000 C   0  0  0  0  0  0  0  0  0  0  0  0
    3.8657   -0.1806    0.0000 C   0  0  0  0  0  0  0  0  0  0  0  0
    3.0709   -0.4263    0.0000 C   0  0  0  0  0  0  0  0  0  0  0  0
    2.0665   -1.3006    0.0000 O   0  0  0  0  0  0  0  0  0  0  0  0
    1.7414   -0.5491    0.0000 C   0  0  0  0  0  0  0  0  0  0  0  0
    2.3628    0.0000    0.0000 O   0  0  0  0  0  0  0  0  0  0  0  0
    4.5450   -2.9842    0.0000 C   0  0  0  0  0  0  0  0  0  0  0  0
    5.2097   -3.4683    0.0000 C   0  0  0  0  0  0  0  0  0  0  0  0
    5.8745   -2.9842    0.0000 C   0  0  0  0  0  0  0  0  0  0  0  0
    6.0696   -2.8830    0.0000 C   0  0  0  0  0  0  0  0  0  0  0  0
    6.8644   -2.6663    0.0000 C   0  0  0  0  0  0  0  0  0  0  0  0
    6.9077   -1.8353    0.0000 C   0  0  0  0  0  0  0  0  0  0  0  0
    5.2097   -4.2920    0.0000 O   0  0  0  0  0  0  0  0  0  0  0  0
    5.9250   -4.7039    0.0000 C   0  0  0  0  0  0  0  0  0  0  0  0
    3.7573   -3.2298    0.0000 O   0  0  0  0  0  0  0  0  0  0  0  0
    3.5767   -4.0464    0.0000 C   0  0  0  0  0  0  0  0  0  0  0  0
    2.7963   -4.2920    0.0000 C   0  0  0  0  0  0  0  0  0  0  0  0
    4.1909   -4.5883    0.0000 O   0  0  0  0  0  0  0  0  0  0  0  0
    2.1894   -3.7501    0.0000 C   0  0  0  0  0  0  0  0  0  0  0  0
    2.6229   -5.1013    0.0000 C   0  0  0  0  0  0  0  0  0  0  0  0
    3.4105   -4.8484    0.0000 O   0  0  0  0  0  0  0  0  0  0  0  0
    1.4018   -3.9958    0.0000 C   0  0  0  0  0  0  0  0  0  0  0  0
    0.7876   -3.4466    0.0000 O   0  0  0  0  0  0  0  0  0  0  0  0
    1.2356   -4.7979    0.0000 O   0  0  0  0  0  0  0  0  0  0  0  0
    0.0000   -3.6996    0.0000 C   0  0  0  0  0  0  0  0  0  0  0  0
    1.8353   -5.3542    0.0000 C   0  0  0  0  0  0  0  0  0  0  0  0
    1.6691   -6.1635    0.0000 C   0  0  0  0  0  0  0  0  0  0  0  0
    0.8816   -6.4236    0.0000 C   0  0  0  0  0  0  0  0  0  0  0  0
    0.7153   -7.2257    0.0000 O   0  0  0  0  0  0  0  0  0  0  0  0
    0.2674   -5.8672    0.0000 C   0  0  0  0  0  0  0  0  0  0  0  0
    1.5029   -6.9655    0.0000 C   0  0  0  0  0  0  0  0  0  0  0  0
  3  1  1  1
  1  8  1  0
  1  2  2  0
  2  4  1  0
  2 10  1  0
  3 15  1  0
  3  5  1  0
  4  7  1  0
  5 17  1  0
 18  5  1  0
  5  6  1  0
  6  7  1  0
  6 20  1  0
  8  9  2  0
  9 12  1  0
  9 11  1  0
 10 11  2  0
 11 14  1  0
 12 13  1  0
 13 14  1  0
 15 16  1  0
 15 23  1  1
 16 17  2  0
 16 21  1  0
 18 19  1  0
 19 20  1  0
 21 22  1  0
 23 24  1  0
 24 25  1  0
 24 26  2  0
 25 27  1  0
 25 28  1  0
 25 29  1  6
 27 30  1  0
 28 34  1  0
 30 31  1  0
 30 32  2  0
 31 33  1  0
 34 35  1  0
 35 36  1  0
 36 37  1  0
 36 38  1  0
 36 39  1  0
M  END
>  <Formula>  (519) 
C29H39NO9

>  <FW>  (519) 
545.6213

>  <DSSTox_CID>  (519) 
25678

>  <NR-Aromatase>  (519) 
1

>  <NR-AR>  (519) 
0

>  <SR-p53>  (519) 
1

$$$$
NCGC00241107-01
     RDKit          2D

 38 40  0  0  0  0  0  0  0  0999 V2000
    2.3128   -0.4626    0.0000 C   0  0  0  0  0  0  0  0  0  0  0  0
    2.3128   -1.2952    0.0000 N   0  0  0  0  0  0  0  0  0  0  0  0
    1.5932   -0.0514    0.0000 C   0  0  0  0  0  0  0  0  0  0  0  0
    1.5932   -1.6961    0.0000 C   0  0  0  0  0  0  0  0  0  0  0  0
    0.8738   -0.4626    0.0000 N   0  0  0  0  0  0  0  0  0  0  0  0
    0.8738   -1.2952    0.0000 C   0  0  0  0  0  0  0  0  0  0  0  0
    3.0323   -1.6961    0.0000 C   0  0  0  0  0  0  0  0  0  0  0  0
    3.7416   -1.2952    0.0000 C   0  0  0  0  0  0  0  0  0  0  0  0
    4.4611   -1.6961    0.0000 C   0  0  0  0  0  0  0  0  0  0  0  0
    5.1704   -1.2952    0.0000 O   0  0  0  0  0  0  0  0  0  0  0  0
    5.8899   -1.6961    0.0000 C   0  0  0  0  0  0  0  0  0  0  0  0
    6.5991   -1.2952    0.0000 C   0  0  0  0  0  0  0  0  0  0  0  0
    5.8899   -2.5287    0.0000 C   0  0  0  0  0  0  0  0  0  0  0  0
    7.3187   -1.6961    0.0000 C   0  0  0  0  0  0  0  0  0  0  0  0
    6.5991   -2.9501    0.0000 C   0  0  0  0  0  0  0  0  0  0  0  0
    7.3187   -2.5287    0.0000 C   0  0  0  0  0  0  0  0  0  0  0  0
    5.1704   -2.9501    0.0000 O   0  0  0  0  0  0  0  0  0  0  0  0
    4.4611   -2.5287    0.0000 C   0  0  0  0  0  0  0  0  0  0  0  0
    8.0382   -1.2952    0.0000 N   0  0  0  0  0  0  0  0  0  0  0  0
    8.7578   -1.6961    0.0000 C   0  0  0  0  0  0  0  0  0  0  0  0
    8.0382   -2.9501    0.0000 C   0  0  0  0  0  0  0  0  0  0  0  0
    8.7578   -2.5287    0.0000 C   0  0  0  0  0  0  0  0  0  0  0  0
    8.0382   -3.7724    0.0000 N   0  0  0  0  0  0  0  0  0  0  0  0
    8.4596   -4.4817    0.0000 C   0  0  0  0  0  0  0  0  0  0  0  0
    9.2820   -4.4817    0.0000 C   0  0  0  0  0  0  0  0  0  0  0  0
    8.0485   -5.1909    0.0000 C   0  0  0  0  0  0  0  0  0  0  0  0
    9.7034   -5.1909    0.0000 C   0  0  0  0  0  0  0  0  0  0  0  0
    8.4699   -5.9208    0.0000 C   0  0  0  0  0  0  0  0  0  0  0  0
    9.2922   -5.9105    0.0000 C   0  0  0  0  0  0  0  0  0  0  0  0
    9.4773   -2.9501    0.0000 C   0  0  0  0  0  0  0  0  0  0  0  0
   10.2790   -2.7856    0.0000 N   0  0  0  0  0  0  0  0  0  0  0  0
    8.0588   -6.6402    0.0000 O   0  0  0  0  0  0  0  0  0  0  0  0
    9.7137   -6.6197    0.0000 Cl  0  0  0  0  0  0  0  0  0  0  0  0
    9.6931   -3.7519    0.0000 Cl  0  0  0  0  0  0  0  0  0  0  0  0
    7.2261   -6.6402    0.0000 C   0  0  0  0  0  0  0  0  0  0  0  0
    0.0000    0.0000    0.0000 C   0  0  0  0  0  0  0  0  0  0  0  0
    4.5947   -3.9780    0.0000 C   0  0  0  0  0  0  0  0  0  0  0  0
    5.3554   -3.9472    0.0000 O   0  0  0  0  0  0  0  0  0  0  0  0
  1  2  1  0
  1  3  1  0
  2  4  1  0
  2  7  1  0
  3  5  1  0
  4  6  1  0
  5  6  1  0
  5 36  1  0
  7  8  1  0
  8  9  1  0
  9 10  1  0
 10 11  1  0
 11 12  2  0
 11 13  1  0
 12 14  1  0
 13 15  2  0
 13 17  1  0
 14 19  2  0
 14 16  1  0
 15 16  1  0
 16 21  2  0
 17 18  1  0
 19 20  1  0
 20 22  2  0
 21 22  1  0
 21 23  1  0
 22 30  1  0
 23 24  1  0
 24 25  2  0
 24 26  1  0
 25 27  1  0
 25 34  1  0
 26 28  2  0
 27 29  2  0
 28 29  1  0
 28 32  1  0
 29 33  1  0
 30 31  3  0
 32 35  1  0
 37 38  1  0
M  END
>  <Formula>  (520) 
C27H33Cl2N5O4

>  <FW>  (520) 
562.4880 (530.4462+32.0419)

>  <DSSTox_CID>  (520) 
28977

>  <NR-AR>  (520) 
0

>  <SR-MMP>  (520) 
1

>  <SR-p53>  (520) 
1

$$$$
NCGC00094893-01
     RDKit          2D

 36 37  0  0  1  0  0  0  0  0999 V2000
    8.5878   -3.4437    0.0000 Cl  0  0  0  0  0  0  0  0  0  0  0  0
    8.3559   -4.9552    0.0000 Cl  0  0  0  0  0  0  0  0  0  0  0  0
    6.5182   -2.8683    0.0000 N   0  0  0  0  0  0  0  0  0  0  0  0
    6.5182   -4.3798    0.0000 C   0  0  0  0  0  0  0  0  0  0  0  0
    5.6766   -1.7090    0.0000 C   0  0  0  0  0  0  0  0  0  0  0  0
    5.6766   -2.5850    0.0000 C   0  0  0  0  0  0  0  0  0  0  0  0
    6.5182   -1.4256    0.0000 N   0  0  0  0  0  0  0  0  0  0  0  0
    6.2691   -5.2214    0.0000 C   0  0  0  0  0  0  0  0  0  0  0  0
    5.3502   -5.2214    0.0000 C   0  0  0  0  0  0  0  0  0  0  0  0
    7.0249   -2.1384    0.0000 C   0  0  0  0  0  0  0  0  0  0  0  0
    5.8054   -3.8817    0.0000 O   0  0  0  0  0  0  0  0  0  0  0  0
    4.9208   -1.2710    0.0000 C   0  0  0  0  0  0  0  0  0  0  0  0
    4.8263   -5.9342    0.0000 N   0  0  0  0  0  0  0  0  0  0  0  0
    5.0840   -4.3798    0.0000 C   0  0  0  0  0  0  0  0  0  0  0  0
    4.8263   -6.7758    0.0000 C   0  0  0  0  0  0  0  0  0  0  0  0
    4.9208   -3.0315    0.0000 N   0  0  0  0  0  0  0  0  0  0  0  0
    4.1479   -1.7090    0.0000 N   0  0  0  0  0  0  0  0  0  0  0  0
    4.1479   -2.5850    0.0000 C   0  0  0  0  0  0  0  0  0  0  0  0
    4.9208   -0.4208    0.0000 N   0  0  0  0  0  0  0  0  0  0  0  0
    4.1222   -7.1794    0.0000 C   0  0  0  0  0  0  0  0  0  0  0  0
    5.5048   -7.1880    0.0000 O   0  0  0  0  0  0  0  0  0  0  0  0
    3.4093   -6.7758    0.0000 C   0  0  0  0  0  0  0  0  0  0  0  0
    6.7586   -5.9342    0.0000 O   0  0  0  0  0  0  0  0  0  0  0  0
    2.7653   -7.1794    0.0000 C   0  0  0  0  0  0  0  0  0  0  0  0
    4.1222   -7.9094    0.0000 N   0  0  0  0  0  0  0  0  0  0  0  0
    1.4084   -7.9437    0.0000 C   0  0  0  0  0  0  0  0  0  0  0  0
    4.2252   -4.1393    0.0000 C   0  0  0  0  0  0  0  0  0  0  0  0
    2.0783   -6.7758    0.0000 C   0  0  0  0  0  0  0  0  0  0  0  0
    2.7653   -7.9437    0.0000 C   0  0  0  0  0  0  0  0  0  0  0  0
    1.4084   -7.1794    0.0000 C   0  0  0  0  0  0  0  0  0  0  0  0
    2.1126   -8.3216    0.0000 C   0  0  0  0  0  0  0  0  0  0  0  0
    0.7128   -8.3216    0.0000 O   0  0  0  0  0  0  0  0  0  0  0  0
    3.5640   -4.5515    0.0000 O   0  0  0  0  0  0  0  0  0  0  0  0
    5.6422   -0.0086    0.0000 C   0  0  0  0  0  0  0  0  0  0  0  0
    4.1909    0.0000    0.0000 C   0  0  0  0  0  0  0  0  0  0  0  0
    0.0000   -7.9523    0.0000 C   0  0  0  0  0  0  0  0  0  0  0  0
  4  3  1  1
  3  6  1  0
  3 10  1  0
  4  8  1  0
  4 11  1  0
  5  6  2  0
  5 12  1  0
  5  7  1  0
  6 16  1  0
  7 10  2  0
  8  9  1  0
  8 23  1  6
  9 13  1  6
  9 14  1  0
 11 14  1  0
 12 19  1  0
 12 17  2  0
 13 15  1  0
 14 27  1  1
 15 20  1  0
 15 21  2  0
 16 18  2  0
 17 18  1  0
 19 34  1  0
 19 35  1  0
 20 22  1  0
 20 25  1  1
 22 24  1  0
 24 28  1  0
 24 29  2  0
 26 31  2  0
 26 32  1  0
 26 30  1  0
 27 33  1  0
 28 30  2  0
 29 31  1  0
 32 36  1  0
M  END
>  <Formula>  (521) 
C22H31Cl2N7O5

>  <FW>  (521) 
544.4314 (36.4609+36.4609+471.5096)

>  <DSSTox_CID>  (521) 
25861

>  <NR-AR>  (521) 
0

>  <NR-ER-LBD>  (521) 
0

>  <SR-p53>  (521) 
1

$$$$
NCGC00168772-01
     RDKit          2D

 33 40  0  0  1  0  0  0  0  0999 V2000
    4.7043   -1.7822    0.0000 C   0  0  0  0  0  0  0  0  0  0  0  0
    3.9045   -2.0593    0.0000 C   0  0  0  0  0  0  0  0  0  0  0  0
    3.1677   -1.7004    0.0000 O   0  0  0  0  0  0  0  0  0  0  0  0
    2.4120   -2.0404    0.0000 C   0  0  0  0  0  0  0  0  0  0  0  0
    2.7710   -1.3099    0.0000 C   0  0  0  0  0  0  0  0  0  0  0  0
    3.5896   -1.3225    0.0000 C   0  0  0  0  0  0  0  0  0  0  0  0
    4.3769   -1.0958    0.0000 O   0  0  0  0  0  0  0  0  0  0  0  0
    3.4700   -0.5038    0.0000 C   0  0  0  0  0  0  0  0  0  0  0  0
    4.1124    0.0000    0.0000 O   0  0  0  0  0  0  0  0  0  0  0  0
    2.1916   -2.8402    0.0000 N   0  0  0  0  0  0  0  0  0  0  0  0
    1.4233   -3.1677    0.0000 C   0  0  0  0  0  0  0  0  0  0  0  0
    1.5051   -3.9927    0.0000 C   0  0  0  0  0  0  0  0  0  0  0  0
    0.8250   -4.4587    0.0000 C   0  0  0  0  0  0  0  0  0  0  0  0
    0.0819   -4.1249    0.0000 C   0  0  0  0  0  0  0  0  0  0  0  0
    0.0000   -3.2937    0.0000 C   0  0  0  0  0  0  0  0  0  0  0  0
    0.6801   -2.8151    0.0000 C   0  0  0  0  0  0  0  0  0  0  0  0
    2.3112   -4.1754    0.0000 C   0  0  0  0  0  0  0  0  0  0  0  0
    2.7395   -3.4574    0.0000 C   0  0  0  0  0  0  0  0  0  0  0  0
    3.5645   -3.4763    0.0000 C   0  0  0  0  0  0  0  0  0  0  0  0
    3.9675   -4.1943    0.0000 C   0  0  0  0  0  0  0  0  0  0  0  0
    3.5456   -4.8996    0.0000 C   0  0  0  0  0  0  0  0  0  0  0  0
    2.7206   -4.8996    0.0000 C   0  0  0  0  0  0  0  0  0  0  0  0
    2.4498   -5.6742    0.0000 C   0  0  0  0  0  0  0  0  0  0  0  0
    1.6626   -5.9261    0.0000 O   0  0  0  0  0  0  0  0  0  0  0  0
    3.1173   -6.1654    0.0000 N   0  0  0  0  0  0  0  0  0  0  0  0
    3.7849   -5.6994    0.0000 C   0  0  0  0  0  0  0  0  0  0  0  0
    4.7799   -4.0242    0.0000 C   0  0  0  0  0  0  0  0  0  0  0  0
    4.8744   -3.2055    0.0000 C   0  0  0  0  0  0  0  0  0  0  0  0
    5.6301   -2.8780    0.0000 C   0  0  0  0  0  0  0  0  0  0  0  0
    6.2977   -3.3755    0.0000 C   0  0  0  0  0  0  0  0  0  0  0  0
    6.2095   -4.1943    0.0000 C   0  0  0  0  0  0  0  0  0  0  0  0
    5.4538   -4.5217    0.0000 C   0  0  0  0  0  0  0  0  0  0  0  0
    4.1249   -2.8654    0.0000 N   0  0  0  0  0  0  0  0  0  0  0  0
  2  1  1  6
  2  3  1  0
  2  6  1  0
  2 33  1  0
  3  4  1  0
  4  5  1  1
  4 10  1  0
  5  6  1  0
  6  7  1  1
  6  8  1  0
  8  9  1  0
 10 11  1  0
 10 18  1  0
 11 12  2  0
 11 16  1  0
 12 13  1  0
 12 17  1  0
 13 14  2  0
 14 15  1  0
 15 16  2  0
 17 18  1  0
 17 22  2  0
 18 19  2  0
 19 20  1  0
 19 33  1  0
 20 21  2  0
 20 27  1  0
 21 22  1  0
 21 26  1  0
 22 23  1  0
 23 24  2  0
 23 25  1  0
 25 26  1  0
 27 28  2  0
 27 32  1  0
 28 29  1  0
 28 33  1  0
 29 30  2  0
 30 31  1  0
 31 32  2  0
M  END
>  <Formula>  (522) 
C26H21N3O4

>  <FW>  (522) 
439.4626

>  <DSSTox_CID>  (522) 
26778

>  <NR-Aromatase>  (522) 
1

>  <NR-AR>  (522) 
0

>  <SR-MMP>  (522) 
1

>  <SR-p53>  (522) 
1

$$$$
NCGC00257257-01
     RDKit          2D

 32 36  0  0  0  0  0  0  0  0999 V2000
    5.0021   -2.0565    0.0000 N   0  0  0  0  0  0  0  0  0  0  0  0
    4.2844   -0.8247    0.0000 N   0  0  0  0  0  0  0  0  0  0  0  0
    5.0021   -1.2425    0.0000 C   0  0  0  0  0  0  0  0  0  0  0  0
    3.5667   -2.0565    0.0000 C   0  0  0  0  0  0  0  0  0  0  0  0
    4.2844   -2.4743    0.0000 C   0  0  0  0  0  0  0  0  0  0  0  0
    3.5667   -1.2425    0.0000 C   0  0  0  0  0  0  0  0  0  0  0  0
    2.1422   -2.0565    0.0000 N   0  0  0  0  0  0  0  0  0  0  0  0
    2.8491   -0.8247    0.0000 N   0  0  0  0  0  0  0  0  0  0  0  0
    2.1422   -1.2425    0.0000 C   0  0  0  0  0  0  0  0  0  0  0  0
    2.8491   -2.4743    0.0000 C   0  0  0  0  0  0  0  0  0  0  0  0
    1.4353   -0.8247    0.0000 O   0  0  0  0  0  0  0  0  0  0  0  0
    0.0000   -2.4743    0.0000 C   0  0  0  0  0  0  0  0  0  0  0  0
    0.0000   -3.2990    0.0000 C   0  0  0  0  0  0  0  0  0  0  0  0
    0.7177   -3.7060    0.0000 C   0  0  0  0  0  0  0  0  0  0  0  0
    1.4353   -3.2990    0.0000 C   0  0  0  0  0  0  0  0  0  0  0  0
    1.4353   -2.4743    0.0000 C   0  0  0  0  0  0  0  0  0  0  0  0
    0.7177   -2.0565    0.0000 C   0  0  0  0  0  0  0  0  0  0  0  0
    0.7177   -1.2425    0.0000 Br  0  0  0  0  0  0  0  0  0  0  0  0
    5.7089   -0.8247    0.0000 N   0  0  0  0  0  0  0  0  0  0  0  0
    8.5581   -0.8247    0.0000 O   0  0  0  0  0  0  0  0  0  0  0  0
    9.2757   -1.2425    0.0000 C   0  0  0  0  0  0  0  0  0  0  0  0
    9.2757   -2.0565    0.0000 C   0  0  0  0  0  0  0  0  0  0  0  0
    8.5581   -2.4743    0.0000 O   0  0  0  0  0  0  0  0  0  0  0  0
    7.8511   -2.0565    0.0000 C   0  0  0  0  0  0  0  0  0  0  0  0
    7.8511   -1.2425    0.0000 C   0  0  0  0  0  0  0  0  0  0  0  0
    7.1335   -0.8247    0.0000 C   0  0  0  0  0  0  0  0  0  0  0  0
    6.4266   -1.2425    0.0000 C   0  0  0  0  0  0  0  0  0  0  0  0
    6.4266   -2.0565    0.0000 C   0  0  0  0  0  0  0  0  0  0  0  0
    7.1335   -2.4743    0.0000 C   0  0  0  0  0  0  0  0  0  0  0  0
    9.9934   -2.4743    0.0000 C   0  0  0  0  0  0  0  0  0  0  0  0
   10.7110   -2.0565    0.0000 O   0  0  0  0  0  0  0  0  0  0  0  0
    2.8491    0.0000    0.0000 C   0  0  0  0  0  0  0  0  0  0  0  0
  1  3  2  0
  1  5  1  0
  2  3  1  0
  2  6  2  0
  3 19  1  0
  4  5  2  0
  4  6  1  0
  4 10  1  0
  6  8  1  0
  7  9  1  0
  7 10  1  0
  7 16  1  0
  8  9  1  0
  8 32  1  0
  9 11  2  0
 12 17  2  0
 12 13  1  0
 13 14  2  0
 14 15  1  0
 15 16  2  0
 16 17  1  0
 17 18  1  0
 19 27  1  0
 20 21  1  0
 20 25  1  0
 21 22  1  0
 22 23  1  0
 22 30  1  0
 23 24  1  0
 24 25  2  0
 24 29  1  0
 25 26  1  0
 26 27  2  0
 27 28  1  0
 28 29  2  0
 30 31  1  0
M  END
>  <Formula>  (523) 
C22H20BrN5O4

>  <FW>  (523) 
498.3293

>  <DSSTox_CID>  (523) 
28493

>  <NR-AR>  (523) 
0

>  <NR-AR-LBD>  (523) 
0

>  <SR-p53>  (523) 
1

$$$$
NCGC00181159-01
     RDKit          2D

 54 62  0  0  1  0  0  0  0  0999 V2000
    1.8060   -4.1918    0.0000 C   0  0  0  0  0  0  0  0  0  0  0  0
    2.3969   -3.6009    0.0000 C   0  0  0  0  0  0  0  0  0  0  0  0
    1.8060   -5.0168    0.0000 C   0  0  0  0  0  0  0  0  0  0  0  0
    2.3969   -5.5854    0.0000 C   0  0  0  0  0  0  0  0  0  0  0  0
    3.2108   -3.6009    0.0000 C   0  0  0  0  0  0  0  0  0  0  0  0
    3.2108   -5.5854    0.0000 C   0  0  0  0  0  0  0  0  0  0  0  0
    3.7905   -4.1918    0.0000 N   0  0  0  0  0  0  0  0  0  0  0  0
    3.7905   -5.0168    0.0000 C   0  0  0  0  0  0  0  0  0  0  0  0
    1.0145   -5.2175    0.0000 C   0  0  0  0  0  0  0  0  0  0  0  0
    0.7916   -6.0202    0.0000 C   0  0  0  0  0  0  0  0  0  0  0  0
    2.1739   -6.3881    0.0000 C   0  0  0  0  0  0  0  0  0  0  0  0
    1.3824   -6.5999    0.0000 C   0  0  0  0  0  0  0  0  0  0  0  0
    0.0000   -6.2320    0.0000 C   0  0  0  0  0  0  0  0  0  0  0  0
    1.1595   -7.3914    0.0000 O   0  0  0  0  0  0  0  0  0  0  0  0
    0.3679   -7.6144    0.0000 C   0  0  0  0  0  0  0  0  0  0  0  0
    2.5195   -7.0124    0.0000 O   0  0  0  0  0  0  0  0  0  0  0  0
    3.0213   -4.4371    0.0000 N   0  0  0  0  0  0  0  0  0  0  0  0
    3.4448   -2.6979    0.0000 O   0  0  0  0  0  0  0  0  0  0  0  0
    4.5151   -3.7682    0.0000 C   0  0  0  0  0  0  0  0  0  0  0  0
    5.2286   -4.1918    0.0000 C   0  0  0  0  0  0  0  0  0  0  0  0
    4.5151   -5.4181    0.0000 C   0  0  0  0  0  0  0  0  0  0  0  0
    5.2286   -5.0168    0.0000 C   0  0  0  0  0  0  0  0  0  0  0  0
    2.1739   -4.4928    0.0000 C   0  0  0  0  0  0  0  0  0  0  0  0
    5.9421   -3.7682    0.0000 C   0  0  0  0  0  0  0  0  0  0  0  0
    6.6556   -4.1918    0.0000 C   0  0  0  0  0  0  0  0  0  0  0  0
    5.9421   -5.4181    0.0000 C   0  0  0  0  0  0  0  0  0  0  0  0
    6.6556   -5.0168    0.0000 C   0  0  0  0  0  0  0  0  0  0  0  0
    4.5151   -2.9432    0.0000 C   0  0  0  0  0  0  0  0  0  0  0  0
    5.2286   -2.5419    0.0000 O   0  0  0  0  0  0  0  0  0  0  0  0
    5.2286   -1.7169    0.0000 C   0  0  0  0  0  0  0  0  0  0  0  0
    8.9968   -0.4237    0.0000 C   0  0  0  0  0  0  0  0  0  0  0  0
    8.9968   -1.2486    0.0000 C   0  0  0  0  0  0  0  0  0  0  0  0
    8.2833    0.0000    0.0000 C   0  0  0  0  0  0  0  0  0  0  0  0
    8.2833   -1.6500    0.0000 C   0  0  0  0  0  0  0  0  0  0  0  0
    7.5698   -0.4237    0.0000 C   0  0  0  0  0  0  0  0  0  0  0  0
    7.5698   -1.2486    0.0000 N   0  0  0  0  0  0  0  0  0  0  0  0
    9.7214    0.0000    0.0000 C   0  0  0  0  0  0  0  0  0  0  0  0
   10.4349   -0.4237    0.0000 C   0  0  0  0  0  0  0  0  0  0  0  0
    9.7214   -1.6500    0.0000 C   0  0  0  0  0  0  0  0  0  0  0  0
   10.4349   -1.2486    0.0000 C   0  0  0  0  0  0  0  0  0  0  0  0
   11.1484    0.0000    0.0000 O   0  0  0  0  0  0  0  0  0  0  0  0
   11.1484   -1.6500    0.0000 O   0  0  0  0  0  0  0  0  0  0  0  0
   11.1484   -2.4749    0.0000 C   0  0  0  0  0  0  0  0  0  0  0  0
    4.6155   -1.1483    0.0000 O   0  0  0  0  0  0  0  0  0  0  0  0
    4.5151   -6.2431    0.0000 S   0  0  0  0  0  0  0  0  0  0  0  0
    8.3502   -6.2320    0.0000 C   0  0  0  0  0  0  0  0  0  0  0  0
    6.1094   -2.9655    0.0000 O   0  0  0  0  0  0  0  0  0  0  0  0
    6.9343   -2.8763    0.0000 C   0  0  0  0  0  0  0  0  0  0  0  0
    7.2688   -3.6344    0.0000 O   0  0  0  0  0  0  0  0  0  0  0  0
    7.3691   -5.4181    0.0000 C   0  0  0  0  0  0  0  0  0  0  0  0
    5.8975   -6.9455    0.0000 O   0  0  0  0  0  0  0  0  0  0  0  0
    5.1729   -7.3468    0.0000 C   0  0  0  0  0  0  0  0  0  0  0  0
    5.1617   -8.1718    0.0000 C   0  0  0  0  0  0  0  0  0  0  0  0
    4.4705   -6.9120    0.0000 O   0  0  0  0  0  0  0  0  0  0  0  0
  2  1  1  1
  1  3  1  0
  2  5  1  0
  2 17  1  0
  3  9  2  0
  3  4  1  0
  4  6  1  0
  4 11  2  0
  5  7  1  0
  5 18  1  6
  6  8  1  0
  6 17  1  6
  7 19  1  0
  8  7  1  1
  8 21  1  0
  9 10  1  0
 10 12  2  0
 10 13  1  0
 11 12  1  0
 11 16  1  0
 12 14  1  0
 14 15  1  0
 17 23  1  0
 19 20  1  0
 19 28  1  1
 20 24  2  0
 20 22  1  0
 21 22  1  0
 21 45  1  1
 22 26  2  0
 24 25  1  0
 24 47  1  0
 25 27  2  0
 25 49  1  0
 26 27  1  0
 26 51  1  0
 27 50  1  0
 28 29  1  0
 29 30  1  0
 34 30  1  0
 30 44  2  0
 31 33  1  0
 31 37  1  0
 31 32  2  0
 32 34  1  0
 32 39  1  0
 33 35  1  0
 34 36  1  0
 34 46  1  1
 35 36  1  0
 37 38  2  0
 38 40  1  0
 38 41  1  0
 39 40  2  0
 40 42  1  0
 42 43  1  0
 45 46  1  0
 47 48  1  0
 48 49  1  0
 51 52  1  0
 52 53  1  0
 52 54  2  0
M  END
>  <Formula>  (524) 
C39H43N3O11S

>  <FW>  (524) 
761.8372

>  <DSSTox_CID>  (524) 
26880

>  <NR-AR>  (524) 
0

>  <NR-ER-LBD>  (524) 
0

>  <SR-ATAD5>  (524) 
0

>  <SR-p53>  (524) 
1

$$$$
NCGC00015889-05
     RDKit          2D

 35 38  0  0  0  0  0  0  0  0999 V2000
    4.9396   -1.4871    0.0000 C   0  0  0  0  0  0  0  0  0  0  0  0
    5.4091   -0.8088    0.0000 C   0  0  0  0  0  0  0  0  0  0  0  0
    4.1482   -1.2262    0.0000 C   0  0  0  0  0  0  0  0  0  0  0  0
    5.3396   -2.1915    0.0000 C   0  0  0  0  0  0  0  0  0  0  0  0
    6.2353   -0.8088    0.0000 C   0  0  0  0  0  0  0  0  0  0  0  0
    4.9396   -0.1565    0.0000 S   0  0  0  0  0  0  0  0  0  0  0  0
    4.1482   -0.4000    0.0000 C   0  0  0  0  0  0  0  0  0  0  0  0
    3.4351   -1.6349    0.0000 C   0  0  0  0  0  0  0  0  0  0  0  0
    4.9396   -2.9046    0.0000 C   0  0  0  0  0  0  0  0  0  0  0  0
    6.1657   -2.1915    0.0000 O   0  0  0  0  0  0  0  0  0  0  0  0
    6.6353   -1.5305    0.0000 C   0  0  0  0  0  0  0  0  0  0  0  0
    6.6353   -0.1130    0.0000 C   0  0  0  0  0  0  0  0  0  0  0  0
    3.4351    0.0000    0.0000 C   0  0  0  0  0  0  0  0  0  0  0  0
    2.7306   -1.2262    0.0000 C   0  0  0  0  0  0  0  0  0  0  0  0
    4.1134   -2.9046    0.0000 C   0  0  0  0  0  0  0  0  0  0  0  0
    5.3396   -3.6264    0.0000 C   0  0  0  0  0  0  0  0  0  0  0  0
    7.4615   -1.5305    0.0000 C   0  0  0  0  0  0  0  0  0  0  0  0
    7.4615   -0.1130    0.0000 C   0  0  0  0  0  0  0  0  0  0  0  0
    2.7306   -0.4000    0.0000 C   0  0  0  0  0  0  0  0  0  0  0  0
    3.6872   -3.6264    0.0000 C   0  0  0  0  0  0  0  0  0  0  0  0
    4.9396   -4.3308    0.0000 C   0  0  0  0  0  0  0  0  0  0  0  0
    7.8702   -0.8088    0.0000 C   0  0  0  0  0  0  0  0  0  0  0  0
    2.0089    0.0000    0.0000 O   0  0  0  0  0  0  0  0  0  0  0  0
    4.1134   -4.3308    0.0000 C   0  0  0  0  0  0  0  0  0  0  0  0
    8.6963   -0.8088    0.0000 O   0  0  0  0  0  0  0  0  0  0  0  0
    3.6872   -5.0352    0.0000 O   0  0  0  0  0  0  0  0  0  0  0  0
    2.8698   -5.0352    0.0000 C   0  0  0  0  0  0  0  0  0  0  0  0
    2.4610   -4.3308    0.0000 C   0  0  0  0  0  0  0  0  0  0  0  0
    1.6436   -4.3308    0.0000 N   0  0  0  0  0  0  0  0  0  0  0  0
    1.2349   -5.0352    0.0000 C   0  0  0  0  0  0  0  0  0  0  0  0
    1.2349   -3.6264    0.0000 C   0  0  0  0  0  0  0  0  0  0  0  0
    0.4087   -5.0352    0.0000 C   0  0  0  0  0  0  0  0  0  0  0  0
    0.4087   -3.6264    0.0000 C   0  0  0  0  0  0  0  0  0  0  0  0
    0.0000   -4.3308    0.0000 C   0  0  0  0  0  0  0  0  0  0  0  0
    1.2349   -1.6349    0.0000 Cl  0  0  0  0  0  0  0  0  0  0  0  0
  1  2  2  0
  1  3  1  0
  1  4  1  0
  2  5  1  0
  2  6  1  0
  3  7  2  0
  3  8  1  0
  4  9  1  0
  4 10  2  0
  5 11  2  0
  5 12  1  0
  6  7  1  0
  7 13  1  0
  8 14  2  0
  9 15  2  0
  9 16  1  0
 11 17  1  0
 12 18  2  0
 13 19  2  0
 14 19  1  0
 15 20  1  0
 16 21  2  0
 17 22  2  0
 18 22  1  0
 19 23  1  0
 20 24  2  0
 21 24  1  0
 22 25  1  0
 24 26  1  0
 26 27  1  0
 27 28  1  0
 28 29  1  0
 29 30  1  0
 29 31  1  0
 30 32  1  0
 31 33  1  0
 32 34  1  0
 33 34  1  0
M  END
>  <Formula>  (525) 
C28H28ClNO4S

>  <FW>  (525) 
510.0442 (473.5833+36.4609)

>  <DSSTox_CID>  (525) 
14181

>  <NR-Aromatase>  (525) 
1

>  <NR-AR>  (525) 
0

>  <NR-AhR>  (525) 
0

>  <SR-MMP>  (525) 
1

>  <SR-p53>  (525) 
1

$$$$
NCGC00161622-02
     RDKit          2D

 90 96  0  0  1  0  0  0  0  0999 V2000
    7.9325   -7.8604    0.0000 C   0  0  0  0  0  0  0  0  0  0  0  0
    7.9325   -8.6824    0.0000 C   0  0  0  0  0  0  0  0  0  0  0  0
    8.6392   -7.4565    0.0000 C   0  0  0  0  0  0  0  0  0  0  0  0
    7.2113   -7.4565    0.0000 N   0  0  0  0  0  0  0  0  0  0  0  0
    7.2113   -9.1007    0.0000 O   0  0  0  0  0  0  0  0  0  0  0  0
    8.6392   -9.1007    0.0000 C   0  0  0  0  0  0  0  0  0  0  0  0
    8.6392   -6.6345    0.0000 C   0  0  0  0  0  0  0  0  0  0  0  0
    9.3603   -7.8604    0.0000 C   0  0  0  0  0  0  0  0  0  0  0  0
    6.5046   -7.8604    0.0000 C   0  0  0  0  0  0  0  0  0  0  0  0
    6.5046   -8.6824    0.0000 C   0  0  0  0  0  0  0  0  0  0  0  0
    9.3603   -8.6824    0.0000 C   0  0  0  0  0  0  0  0  0  0  0  0
    8.6392   -9.9228    0.0000 C   0  0  0  0  0  0  0  0  0  0  0  0
    9.3603   -6.2162    0.0000 N   0  0  0  0  0  0  0  0  0  0  0  0
    7.9325   -6.2162    0.0000 O   0  0  0  0  0  0  0  0  0  0  0  0
   10.0670   -7.4565    0.0000 N   0  0  0  0  0  0  0  0  0  0  0  0
    5.7835   -7.4565    0.0000 C   0  0  0  0  0  0  0  0  0  0  0  0
    5.7835   -9.1007    0.0000 C   0  0  0  0  0  0  0  0  0  0  0  0
   10.0670   -9.1007    0.0000 O   0  0  0  0  0  0  0  0  0  0  0  0
    5.7835   -6.6345    0.0000 C   0  0  0  0  0  0  0  0  0  0  0  0
    5.0768   -7.8604    0.0000 C   0  0  0  0  0  0  0  0  0  0  0  0
    5.0768   -8.6824    0.0000 C   0  0  0  0  0  0  0  0  0  0  0  0
    5.7835   -9.9228    0.0000 C   0  0  0  0  0  0  0  0  0  0  0  0
    5.0768   -6.2162    0.0000 N   0  0  0  0  0  0  0  0  0  0  0  0
    6.5046   -6.2162    0.0000 O   0  0  0  0  0  0  0  0  0  0  0  0
    9.3603   -5.3508    0.0000 C   0  0  0  0  0  0  0  0  0  0  0  0
    8.6103   -4.9181    0.0000 C   0  0  0  0  0  0  0  0  0  0  0  0
   10.0958   -4.9181    0.0000 C   0  0  0  0  0  0  0  0  0  0  0  0
    8.6103   -1.5721    0.0000 N   0  0  0  0  0  0  0  0  0  0  0  0
    7.8748   -5.3508    0.0000 O   0  0  0  0  0  0  0  0  0  0  0  0
   10.0958   -4.0672    0.0000 C   0  0  0  0  0  0  0  0  0  0  0  0
   10.8603   -5.3364    0.0000 O   0  0  0  0  0  0  0  0  0  0  0  0
   11.5670   -4.9325    0.0000 C   0  0  0  0  0  0  0  0  0  0  0  0
   11.5670   -4.1105    0.0000 O   0  0  0  0  0  0  0  0  0  0  0  0
    9.2882   -1.2403    0.0000 C   0  0  0  0  0  0  0  0  0  0  0  0
    9.2882   -0.4183    0.0000 C   0  0  0  0  0  0  0  0  0  0  0  0
   10.7593   -1.6442    0.0000 C   0  0  0  0  0  0  0  0  0  0  0  0
   12.3314   -1.0096    0.0000 N   0  0  0  0  0  0  0  0  0  0  0  0
   10.7593   -2.4663    0.0000 O   0  0  0  0  0  0  0  0  0  0  0  0
   12.5910   -0.2163    0.0000 C   0  0  0  0  0  0  0  0  0  0  0  0
   12.9948   -1.4999    0.0000 C   0  0  0  0  0  0  0  0  0  0  0  0
   13.4131   -0.2163    0.0000 C   0  0  0  0  0  0  0  0  0  0  0  0
   13.6727   -1.0096    0.0000 C   0  0  0  0  0  0  0  0  0  0  0  0
    8.5671    0.0000    0.0000 C   0  0  0  0  0  0  0  0  0  0  0  0
    9.9949    0.0000    0.0000 C   0  0  0  0  0  0  0  0  0  0  0  0
   12.9948   -2.4519    0.0000 C   0  0  0  0  0  0  0  0  0  0  0  0
   12.3025   -2.8701    0.0000 O   0  0  0  0  0  0  0  0  0  0  0  0
   13.7160   -2.8701    0.0000 N   0  0  0  0  0  0  0  0  0  0  0  0
   13.7160   -3.6922    0.0000 C   0  0  0  0  0  0  0  0  0  0  0  0
   14.4227   -2.4519    0.0000 C   0  0  0  0  0  0  0  0  0  0  0  0
   12.9948   -4.1105    0.0000 C   0  0  0  0  0  0  0  0  0  0  0  0
   12.3025   -3.6922    0.0000 O   0  0  0  0  0  0  0  0  0  0  0  0
   12.9948   -4.9325    0.0000 N   0  0  0  0  0  0  0  0  0  0  0  0
   13.7160   -5.3364    0.0000 C   0  0  0  0  0  0  0  0  0  0  0  0
   12.3025   -5.3364    0.0000 C   0  0  0  0  0  0  0  0  0  0  0  0
   12.3025   -6.1585    0.0000 C   0  0  0  0  0  0  0  0  0  0  0  0
   12.9948   -6.5767    0.0000 C   0  0  0  0  0  0  0  0  0  0  0  0
   11.5670   -6.5767    0.0000 C   0  0  0  0  0  0  0  0  0  0  0  0
    5.0768   -5.3508    0.0000 C   0  0  0  0  0  0  0  0  0  0  0  0
    5.8268   -4.9181    0.0000 C   0  0  0  0  0  0  0  0  0  0  0  0
    4.3412   -4.9181    0.0000 C   0  0  0  0  0  0  0  0  0  0  0  0
    5.8268   -1.5721    0.0000 N   0  0  0  0  0  0  0  0  0  0  0  0
    6.5623   -5.3508    0.0000 O   0  0  0  0  0  0  0  0  0  0  0  0
    4.3412   -4.0672    0.0000 C   0  0  0  0  0  0  0  0  0  0  0  0
    3.5624   -5.3364    0.0000 O   0  0  0  0  0  0  0  0  0  0  0  0
    2.8557   -4.9325    0.0000 C   0  0  0  0  0  0  0  0  0  0  0  0
    2.8557   -4.1105    0.0000 O   0  0  0  0  0  0  0  0  0  0  0  0
    5.1489   -1.2403    0.0000 C   0  0  0  0  0  0  0  0  0  0  0  0
    5.1489   -0.4183    0.0000 C   0  0  0  0  0  0  0  0  0  0  0  0
    3.6778   -1.6442    0.0000 C   0  0  0  0  0  0  0  0  0  0  0  0
    2.0913   -1.0096    0.0000 N   0  0  0  0  0  0  0  0  0  0  0  0
    3.6778   -2.4663    0.0000 O   0  0  0  0  0  0  0  0  0  0  0  0
    1.8317   -0.2163    0.0000 C   0  0  0  0  0  0  0  0  0  0  0  0
    1.4278   -1.4999    0.0000 C   0  0  0  0  0  0  0  0  0  0  0  0
    1.0096   -0.2163    0.0000 C   0  0  0  0  0  0  0  0  0  0  0  0
    0.7644   -1.0096    0.0000 C   0  0  0  0  0  0  0  0  0  0  0  0
    5.8556    0.0000    0.0000 C   0  0  0  0  0  0  0  0  0  0  0  0
    4.4278    0.0000    0.0000 C   0  0  0  0  0  0  0  0  0  0  0  0
    1.4278   -2.4519    0.0000 C   0  0  0  0  0  0  0  0  0  0  0  0
    2.1345   -2.8701    0.0000 O   0  0  0  0  0  0  0  0  0  0  0  0
    0.7067   -2.8701    0.0000 N   0  0  0  0  0  0  0  0  0  0  0  0
    0.7067   -3.6922    0.0000 C   0  0  0  0  0  0  0  0  0  0  0  0
    0.0000   -2.4519    0.0000 C   0  0  0  0  0  0  0  0  0  0  0  0
    1.4278   -4.1105    0.0000 C   0  0  0  0  0  0  0  0  0  0  0  0
    2.1345   -3.6922    0.0000 O   0  0  0  0  0  0  0  0  0  0  0  0
    1.4278   -4.9325    0.0000 N   0  0  0  0  0  0  0  0  0  0  0  0
    0.7067   -5.3364    0.0000 C   0  0  0  0  0  0  0  0  0  0  0  0
    2.1345   -5.3364    0.0000 C   0  0  0  0  0  0  0  0  0  0  0  0
    2.1345   -6.1585    0.0000 C   0  0  0  0  0  0  0  0  0  0  0  0
    1.4278   -6.5767    0.0000 C   0  0  0  0  0  0  0  0  0  0  0  0
    2.8557   -6.5767    0.0000 C   0  0  0  0  0  0  0  0  0  0  0  0
  1  2  1  0
  1  3  1  0
  1  4  2  0
  2  5  1  0
  2  6  2  0
  3  7  1  0
  3  8  2  0
  4  9  1  0
  5 10  1  0
  6 11  1  0
  6 12  1  0
  7 13  1  0
  7 14  2  0
  8 15  1  0
  8 11  1  0
  9 16  2  0
  9 10  1  0
 10 17  2  0
 11 18  2  0
 25 13  1  6
 16 19  1  0
 16 20  1  0
 17 21  1  0
 17 22  1  0
 19 23  1  0
 19 24  2  0
 20 21  2  0
 58 23  1  1
 25 26  1  0
 25 27  1  0
 26 28  1  0
 26 29  2  0
 27 30  1  1
 27 31  1  0
 28 34  1  0
 31 32  1  0
 32 33  2  0
 32 54  1  0
 34 35  1  6
 34 36  1  0
 35 43  1  0
 35 44  1  0
 36 37  1  0
 36 38  2  0
 37 39  1  0
 37 40  1  0
 39 41  1  0
 40 42  1  1
 40 45  1  0
 41 42  1  0
 45 46  2  0
 45 47  1  0
 47 48  1  0
 47 49  1  0
 48 50  1  0
 50 51  2  0
 50 52  1  0
 52 53  1  0
 52 54  1  0
 54 55  1  1
 55 56  1  0
 55 57  1  0
 58 59  1  0
 58 60  1  0
 59 61  1  0
 59 62  2  0
 60 63  1  6
 60 64  1  0
 61 67  1  0
 64 65  1  0
 65 66  2  0
 65 87  1  0
 67 68  1  1
 67 69  1  0
 68 76  1  0
 68 77  1  0
 69 70  1  0
 69 71  2  0
 70 72  1  0
 70 73  1  0
 72 74  1  0
 73 75  1  6
 73 78  1  0
 74 75  1  0
 78 79  2  0
 78 80  1  0
 80 81  1  0
 80 82  1  0
 81 83  1  0
 83 84  2  0
 83 85  1  0
 85 86  1  0
 85 87  1  0
 87 88  1  6
 88 89  1  0
 88 90  1  0
M  END
>  <Formula>  (526) 
C62H86N12O16

>  <FW>  (526) 
1255.4170

>  <DSSTox_CID>  (526) 
31

>  <NR-AR>  (526) 
0

>  <NR-ER-LBD>  (526) 
0

>  <SR-ATAD5>  (526) 
0

>  <SR-p53>  (526) 
1

$$$$
NCGC00188865-01
     RDKit          2D

 31 34  0  0  0  0  0  0  0  0999 V2000
    5.5464   -6.0556    0.0000 C   0  0  0  0  0  0  0  0  0  0  0  0
    4.9275   -6.6039    0.0000 C   0  0  0  0  0  0  0  0  0  0  0  0
    4.1284   -6.4316    0.0000 C   0  0  0  0  0  0  0  0  0  0  0  0
    3.7211   -5.7187    0.0000 C   0  0  0  0  0  0  0  0  0  0  0  0
    2.8907   -5.7187    0.0000 C   0  0  0  0  0  0  0  0  0  0  0  0
    2.4755   -6.4316    0.0000 C   0  0  0  0  0  0  0  0  0  0  0  0
    1.6529   -6.4316    0.0000 N   0  0  0  0  0  0  0  0  0  0  0  0
    1.2456   -5.7187    0.0000 C   0  0  0  0  0  0  0  0  0  0  0  0
    1.6529   -4.9980    0.0000 N   0  0  0  0  0  0  0  0  0  0  0  0
    1.2456   -4.2929    0.0000 C   0  0  0  0  0  0  0  0  0  0  0  0
    1.6529   -3.5801    0.0000 N   0  0  0  0  0  0  0  0  0  0  0  0
    1.2456   -2.8593    0.0000 C   0  0  0  0  0  0  0  0  0  0  0  0
    1.6529   -2.1465    0.0000 C   0  0  0  0  0  0  0  0  0  0  0  0
    1.2456   -1.4336    0.0000 C   0  0  0  0  0  0  0  0  0  0  0  0
    1.6529   -0.7129    0.0000 S   0  0  0  0  0  0  0  0  0  0  0  0
    2.3658   -1.1359    0.0000 N   0  0  0  0  0  0  0  0  0  0  0  0
    0.9322   -0.3055    0.0000 O   0  0  0  0  0  0  0  0  0  0  0  0
    2.0681    0.0000    0.0000 O   0  0  0  0  0  0  0  0  0  0  0  0
    0.4152   -1.4336    0.0000 C   0  0  0  0  0  0  0  0  0  0  0  0
    0.0000   -0.7129    0.0000 C   0  0  0  0  0  0  0  0  0  0  0  0
    0.0000   -2.1465    0.0000 C   0  0  0  0  0  0  0  0  0  0  0  0
    0.4152   -2.8593    0.0000 C   0  0  0  0  0  0  0  0  0  0  0  0
    0.4152   -4.2929    0.0000 N   0  0  0  0  0  0  0  0  0  0  0  0
    0.0000   -4.9980    0.0000 C   0  0  0  0  0  0  0  0  0  0  0  0
    0.4152   -5.7187    0.0000 C   0  0  0  0  0  0  0  0  0  0  0  0
    1.2456   -7.1444    0.0000 C   0  0  0  0  0  0  0  0  0  0  0  0
    2.8907   -7.1444    0.0000 C   0  0  0  0  0  0  0  0  0  0  0  0
    3.7211   -7.1444    0.0000 C   0  0  0  0  0  0  0  0  0  0  0  0
    4.2616   -7.7634    0.0000 N   0  0  0  0  0  0  0  0  0  0  0  0
    5.0215   -7.4265    0.0000 N   0  0  0  0  0  0  0  0  0  0  0  0
    5.7344   -7.8338    0.0000 C   0  0  0  0  0  0  0  0  0  0  0  0
  1  2  1  0
  2  3  2  0
  2 30  1  0
  3  4  1  0
  3 28  1  0
  4  5  2  0
  5  6  1  0
  6  7  1  0
  6 27  2  0
  7  8  1  0
  7 26  1  0
  8  9  2  0
  8 25  1  0
  9 10  1  0
 10 11  1  0
 10 23  2  0
 11 12  1  0
 12 13  2  0
 12 22  1  0
 13 14  1  0
 14 15  1  0
 14 19  2  0
 15 16  1  0
 15 17  2  0
 15 18  2  0
 19 20  1  0
 19 21  1  0
 21 22  2  0
 23 24  1  0
 24 25  2  0
 27 28  1  0
 28 29  2  0
 29 30  1  0
 30 31  1  0
M  END
>  <Formula>  (527) 
C21H23N7O2S

>  <FW>  (527) 
437.5180

>  <DSSTox_CID>  (527) 
28659

>  <NR-AR>  (527) 
0

>  <NR-AR-LBD>  (527) 
0

>  <NR-ER-LBD>  (527) 
0

>  <SR-p53>  (527) 
1

$$$$
NCGC00025155-01
     RDKit          2D

 39 43  0  0  1  0  0  0  0  0999 V2000
    4.2848   -1.5535    0.0000 C   0  0  0  0  0  0  0  0  0  0  0  0
    4.4654   -0.7442    0.0000 C   0  0  0  0  0  0  0  0  0  0  0  0
    4.7906   -2.1966    0.0000 C   0  0  0  0  0  0  0  0  0  0  0  0
    5.2097   -0.3902    0.0000 C   0  0  0  0  0  0  0  0  0  0  0  0
    5.6143   -2.1966    0.0000 C   0  0  0  0  0  0  0  0  0  0  0  0
    6.1346   -1.5535    0.0000 N   0  0  0  0  0  0  0  0  0  0  0  0
    5.9539   -0.7442    0.0000 C   0  0  0  0  0  0  0  0  0  0  0  0
    3.4900   -1.7920    0.0000 C   0  0  0  0  0  0  0  0  0  0  0  0
    2.8903   -1.2356    0.0000 C   0  0  0  0  0  0  0  0  0  0  0  0
    3.8657   -0.1806    0.0000 C   0  0  0  0  0  0  0  0  0  0  0  0
    3.0709   -0.4263    0.0000 C   0  0  0  0  0  0  0  0  0  0  0  0
    2.0665   -1.3006    0.0000 O   0  0  0  0  0  0  0  0  0  0  0  0
    1.7414   -0.5491    0.0000 C   0  0  0  0  0  0  0  0  0  0  0  0
    2.3628    0.0000    0.0000 O   0  0  0  0  0  0  0  0  0  0  0  0
    4.5450   -2.9842    0.0000 C   0  0  0  0  0  0  0  0  0  0  0  0
    5.2097   -3.4683    0.0000 C   0  0  0  0  0  0  0  0  0  0  0  0
    5.8745   -2.9842    0.0000 C   0  0  0  0  0  0  0  0  0  0  0  0
    6.0696   -2.8830    0.0000 C   0  0  0  0  0  0  0  0  0  0  0  0
    6.8644   -2.6663    0.0000 C   0  0  0  0  0  0  0  0  0  0  0  0
    6.9077   -1.8353    0.0000 C   0  0  0  0  0  0  0  0  0  0  0  0
    5.2097   -4.2920    0.0000 O   0  0  0  0  0  0  0  0  0  0  0  0
    5.9250   -4.7039    0.0000 C   0  0  0  0  0  0  0  0  0  0  0  0
    3.7573   -3.2298    0.0000 O   0  0  0  0  0  0  0  0  0  0  0  0
    3.5767   -4.0464    0.0000 C   0  0  0  0  0  0  0  0  0  0  0  0
    2.7963   -4.2920    0.0000 C   0  0  0  0  0  0  0  0  0  0  0  0
    4.1909   -4.5883    0.0000 O   0  0  0  0  0  0  0  0  0  0  0  0
    2.1894   -3.7501    0.0000 C   0  0  0  0  0  0  0  0  0  0  0  0
    2.6229   -5.1013    0.0000 C   0  0  0  0  0  0  0  0  0  0  0  0
    3.4105   -4.8484    0.0000 O   0  0  0  0  0  0  0  0  0  0  0  0
    1.4018   -3.9958    0.0000 C   0  0  0  0  0  0  0  0  0  0  0  0
    0.7876   -3.4466    0.0000 O   0  0  0  0  0  0  0  0  0  0  0  0
    1.2356   -4.7979    0.0000 O   0  0  0  0  0  0  0  0  0  0  0  0
    0.0000   -3.6996    0.0000 C   0  0  0  0  0  0  0  0  0  0  0  0
    1.8353   -5.3542    0.0000 C   0  0  0  0  0  0  0  0  0  0  0  0
    1.6691   -6.1635    0.0000 C   0  0  0  0  0  0  0  0  0  0  0  0
    0.8816   -6.4236    0.0000 C   0  0  0  0  0  0  0  0  0  0  0  0
    0.7153   -7.2257    0.0000 O   0  0  0  0  0  0  0  0  0  0  0  0
    0.2674   -5.8672    0.0000 C   0  0  0  0  0  0  0  0  0  0  0  0
    1.5029   -6.9655    0.0000 C   0  0  0  0  0  0  0  0  0  0  0  0
  3  1  1  1
  1  8  1  0
  1  2  2  0
  2  4  1  0
  2 10  1  0
  3 15  1  0
  3  5  1  0
  4  7  1  0
  5 17  1  0
 18  5  1  0
  5  6  1  0
  6  7  1  0
  6 20  1  0
  8  9  2  0
  9 12  1  0
  9 11  1  0
 10 11  2  0
 11 14  1  0
 12 13  1  0
 13 14  1  0
 15 16  1  0
 15 23  1  1
 16 17  2  0
 16 21  1  0
 18 19  1  0
 19 20  1  0
 21 22  1  0
 23 24  1  0
 24 25  1  0
 24 26  2  0
 25 27  1  0
 25 28  1  0
 25 29  1  6
 27 30  1  0
 28 34  1  0
 30 31  1  0
 30 32  2  0
 31 33  1  0
 34 35  1  0
 35 36  1  0
 36 37  1  0
 36 38  1  0
 36 39  1  0
M  END
>  <Formula>  (528) 
C29H39NO9

>  <FW>  (528) 
545.6213

>  <DSSTox_CID>  (528) 
25678

>  <NR-Aromatase>  (528) 
1

>  <NR-AR>  (528) 
0

>  <NR-AR-LBD>  (528) 
0

>  <NR-ER-LBD>  (528) 
0

>  <SR-p53>  (528) 
1

$$$$
NCGC00163697-01
     RDKit          2D

 83 90  0  0  1  0  0  0  0  0999 V2000
    9.6802   -2.6809    0.0000 C   0  0  0  0  0  0  0  0  0  0  0  0
   10.3760   -3.0493    0.0000 C   0  0  0  0  0  0  0  0  0  0  0  0
   11.0513   -1.8624    0.0000 C   0  0  0  0  0  0  0  0  0  0  0  0
   11.0513   -2.6809    0.0000 C   0  0  0  0  0  0  0  0  0  0  0  0
    8.3090   -2.6809    0.0000 C   0  0  0  0  0  0  0  0  0  0  0  0
    9.0048   -3.0493    0.0000 C   0  0  0  0  0  0  0  0  0  0  0  0
    7.6336   -3.0493    0.0000 C   0  0  0  0  0  0  0  0  0  0  0  0
    9.6802   -1.8624    0.0000 C   0  0  0  0  0  0  0  0  0  0  0  0
    6.9173   -2.6809    0.0000 C   0  0  0  0  0  0  0  0  0  0  0  0
    6.9173   -1.8624    0.0000 C   0  0  0  0  0  0  0  0  0  0  0  0
    8.3090   -1.8624    0.0000 C   0  0  0  0  0  0  0  0  0  0  0  0
   10.3760   -1.4530    0.0000 C   0  0  0  0  0  0  0  0  0  0  0  0
    9.0048   -1.4530    0.0000 C   0  0  0  0  0  0  0  0  0  0  0  0
    7.6336   -1.4530    0.0000 C   0  0  0  0  0  0  0  0  0  0  0  0
   10.3760   -3.8884    0.0000 O   0  0  0  0  0  0  0  0  0  0  0  0
    9.0048   -3.8884    0.0000 O   0  0  0  0  0  0  0  0  0  0  0  0
    7.6336   -3.8884    0.0000 O   0  0  0  0  0  0  0  0  0  0  0  0
    6.2215   -1.4326    0.0000 O   0  0  0  0  0  0  0  0  0  0  0  0
    6.2215   -3.1107    0.0000 C   0  0  0  0  0  0  0  0  0  0  0  0
   12.4839   -1.8624    0.0000 C   0  0  0  0  0  0  0  0  0  0  0  0
   12.4839   -2.6809    0.0000 O   0  0  0  0  0  0  0  0  0  0  0  0
   11.7676   -1.4326    0.0000 C   0  0  0  0  0  0  0  0  0  0  0  0
   13.9165   -1.8624    0.0000 C   0  0  0  0  0  0  0  0  0  0  0  0
   13.9165   -2.6809    0.0000 O   0  0  0  0  0  0  0  0  0  0  0  0
   13.2002   -1.4326    0.0000 C   0  0  0  0  0  0  0  0  0  0  0  0
   14.6328   -1.4326    0.0000 C   0  0  0  0  0  0  0  0  0  0  0  0
   11.7676   -0.6140    0.0000 O   0  0  0  0  0  0  0  0  0  0  0  0
   13.2002   -0.6140    0.0000 O   0  0  0  0  0  0  0  0  0  0  0  0
   12.4839   -0.1842    0.0000 C   0  0  0  0  0  0  0  0  0  0  0  0
   17.6003   -5.1778    0.0000 O   0  0  0  0  0  0  0  0  0  0  0  0
   17.6003   -4.3591    0.0000 C   0  0  0  0  0  0  0  0  0  0  0  0
   18.3166   -5.6076    0.0000 C   0  0  0  0  0  0  0  0  0  0  0  0
   18.2961   -3.9498    0.0000 C   0  0  0  0  0  0  0  0  0  0  0  0
   19.0329   -5.1778    0.0000 C   0  0  0  0  0  0  0  0  0  0  0  0
   19.0124   -4.3591    0.0000 C   0  0  0  0  0  0  0  0  0  0  0  0
   18.3166   -6.4261    0.0000 C   0  0  0  0  0  0  0  0  0  0  0  0
   16.8635   -3.9498    0.0000 O   0  0  0  0  0  0  0  0  0  0  0  0
   19.8515   -4.3591    0.0000 O   0  0  0  0  0  0  0  0  0  0  0  0
   19.7492   -5.5871    0.0000 O   0  0  0  0  0  0  0  0  0  0  0  0
   19.4422   -3.6429    0.0000 C   0  0  0  0  0  0  0  0  0  0  0  0
   19.7492   -6.4261    0.0000 C   0  0  0  0  0  0  0  0  0  0  0  0
   19.0329   -6.8355    0.0000 O   0  0  0  0  0  0  0  0  0  0  0  0
   20.4654   -6.8355    0.0000 C   0  0  0  0  0  0  0  0  0  0  0  0
   14.7147   -5.1982    0.0000 O   0  0  0  0  0  0  0  0  0  0  0  0
   14.7147   -4.3591    0.0000 C   0  0  0  0  0  0  0  0  0  0  0  0
   15.4514   -5.6076    0.0000 C   0  0  0  0  0  0  0  0  0  0  0  0
   15.4310   -3.9498    0.0000 C   0  0  0  0  0  0  0  0  0  0  0  0
   16.1677   -5.1982    0.0000 C   0  0  0  0  0  0  0  0  0  0  0  0
   16.1677   -4.3591    0.0000 C   0  0  0  0  0  0  0  0  0  0  0  0
   15.4514   -6.4466    0.0000 C   0  0  0  0  0  0  0  0  0  0  0  0
   13.9984   -3.9498    0.0000 O   0  0  0  0  0  0  0  0  0  0  0  0
   16.8840   -5.6076    0.0000 O   0  0  0  0  0  0  0  0  0  0  0  0
   11.8495   -5.1982    0.0000 O   0  0  0  0  0  0  0  0  0  0  0  0
   11.8495   -4.3796    0.0000 C   0  0  0  0  0  0  0  0  0  0  0  0
   12.5658   -5.6280    0.0000 C   0  0  0  0  0  0  0  0  0  0  0  0
   12.5658   -3.9498    0.0000 C   0  0  0  0  0  0  0  0  0  0  0  0
   13.2821   -5.1982    0.0000 C   0  0  0  0  0  0  0  0  0  0  0  0
   13.2821   -4.3796    0.0000 C   0  0  0  0  0  0  0  0  0  0  0  0
   12.5658   -6.4671    0.0000 C   0  0  0  0  0  0  0  0  0  0  0  0
   11.1332   -3.9703    0.0000 O   0  0  0  0  0  0  0  0  0  0  0  0
   14.0189   -5.6076    0.0000 O   0  0  0  0  0  0  0  0  0  0  0  0
    4.9731   -0.7163    0.0000 O   0  0  0  0  0  0  0  0  0  0  0  0
    5.3824   -1.4326    0.0000 C   0  0  0  0  0  0  0  0  0  0  0  0
    4.1340   -0.7163    0.0000 C   0  0  0  0  0  0  0  0  0  0  0  0
    4.9731   -2.1489    0.0000 C   0  0  0  0  0  0  0  0  0  0  0  0
    3.7247   -1.4326    0.0000 C   0  0  0  0  0  0  0  0  0  0  0  0
    4.1340   -2.1489    0.0000 C   0  0  0  0  0  0  0  0  0  0  0  0
    3.7247    0.0000    0.0000 C   0  0  0  0  0  0  0  0  0  0  0  0
    3.7247   -2.8651    0.0000 O   0  0  0  0  0  0  0  0  0  0  0  0
    2.9061   -1.4326    0.0000 O   0  0  0  0  0  0  0  0  0  0  0  0
    2.4968   -2.1489    0.0000 O   0  0  0  0  0  0  0  0  0  0  0  0
    2.9061   -2.8651    0.0000 C   0  0  0  0  0  0  0  0  0  0  0  0
    1.6577   -2.1489    0.0000 C   0  0  0  0  0  0  0  0  0  0  0  0
    2.4968   -3.5815    0.0000 C   0  0  0  0  0  0  0  0  0  0  0  0
    1.2484   -2.8651    0.0000 C   0  0  0  0  0  0  0  0  0  0  0  0
    1.6577   -3.5815    0.0000 C   0  0  0  0  0  0  0  0  0  0  0  0
    1.2484   -1.4326    0.0000 C   0  0  0  0  0  0  0  0  0  0  0  0
    1.2484   -4.3182    0.0000 O   0  0  0  0  0  0  0  0  0  0  0  0
    0.4093   -2.8651    0.0000 O   0  0  0  0  0  0  0  0  0  0  0  0
    0.0000   -2.1489    0.0000 C   0  0  0  0  0  0  0  0  0  0  0  0
    2.4968   -0.7163    0.0000 C   0  0  0  0  0  0  0  0  0  0  0  0
    2.9061    0.0000    0.0000 O   0  0  0  0  0  0  0  0  0  0  0  0
    1.6577   -0.7163    0.0000 O   0  0  0  0  0  0  0  0  0  0  0  0
  1  2  1  0
  1  6  1  0
  1  8  2  0
  2  4  1  0
  2 15  2  0
  3 12  1  1
  3 22  1  0
  3  4  1  0
  4 60  1  6
  5  6  2  0
  5  7  1  0
  5 11  1  0
  6 16  1  0
  7  9  2  0
  7 17  1  0
  8 12  1  0
  8 13  1  0
  9 10  1  0
  9 19  1  0
 10 14  2  0
 10 18  1  0
 11 13  2  0
 11 14  1  0
 63 18  1  1
 20 22  1  0
 20 25  1  0
 20 21  2  0
 22 27  1  6
 23 25  1  0
 23 26  1  1
 23 24  1  0
 25 28  1  1
 27 29  1  0
 30 31  1  0
 30 32  1  0
 31 33  1  0
 31 37  1  1
 32 34  1  0
 32 36  1  6
 33 35  1  0
 34 35  1  0
 34 39  1  1
 35 38  1  0
 35 40  1  1
 49 37  1  1
 39 41  1  0
 41 42  2  0
 41 43  1  0
 44 45  1  0
 44 46  1  0
 45 47  1  0
 45 51  1  1
 46 48  1  0
 46 50  1  1
 47 49  1  0
 48 49  1  0
 48 52  1  6
 58 51  1  1
 53 54  1  0
 53 55  1  0
 54 56  1  0
 54 60  1  1
 55 57  1  0
 55 59  1  1
 56 58  1  0
 57 58  1  0
 57 61  1  6
 62 63  1  0
 62 64  1  0
 63 65  1  0
 64 66  1  0
 64 68  1  1
 65 67  1  0
 66 67  1  0
 66 70  1  1
 67 69  1  1
 72 69  1  6
 70 81  1  0
 71 72  1  0
 71 73  1  0
 72 74  1  0
 73 75  1  0
 73 77  1  1
 74 76  1  0
 75 76  1  0
 75 79  1  1
 76 78  1  1
 79 80  1  0
 81 82  1  0
 81 83  2  0
M  END
>  <Formula>  (529) 
C56H80O27

>  <FW>  (529) 
1185.2182

>  <DSSTox_CID>  (529) 
26363

>  <NR-Aromatase>  (529) 
1

>  <NR-AR>  (529) 
0

>  <SR-ATAD5>  (529) 
0

>  <SR-MMP>  (529) 
1

>  <SR-p53>  (529) 
1

$$$$
NCGC00259146-01
     RDKit          2D

 34 36  0  0  0  0  0  0  0  0999 V2000
    5.0188   -3.4548    0.0000 C   0  0  0  0  0  0  0  0  0  0  0  0
    4.2969   -3.0594    0.0000 C   0  0  0  0  0  0  0  0  0  0  0  0
    5.0188   -4.2883    0.0000 C   0  0  0  0  0  0  0  0  0  0  0  0
    3.5836   -3.4548    0.0000 C   0  0  0  0  0  0  0  0  0  0  0  0
    5.7235   -3.0594    0.0000 C   0  0  0  0  0  0  0  0  0  0  0  0
    4.2969   -1.6500    0.0000 C   0  0  0  0  0  0  0  0  0  0  0  0
    3.5836   -4.2883    0.0000 C   0  0  0  0  0  0  0  0  0  0  0  0
    5.7235   -4.7095    0.0000 C   0  0  0  0  0  0  0  0  0  0  0  0
    4.2969   -4.7095    0.0000 O   0  0  0  0  0  0  0  0  0  0  0  0
    6.4454   -4.2883    0.0000 C   0  0  0  0  0  0  0  0  0  0  0  0
    6.4454   -3.4548    0.0000 C   0  0  0  0  0  0  0  0  0  0  0  0
    5.0188   -1.2375    0.0000 C   0  0  0  0  0  0  0  0  0  0  0  0
    2.8704   -3.0594    0.0000 C   0  0  0  0  0  0  0  0  0  0  0  0
    2.8704   -4.7095    0.0000 C   0  0  0  0  0  0  0  0  0  0  0  0
    7.1673   -4.7095    0.0000 N   0  0  0  0  0  0  0  0  0  0  0  0
    5.7321   -1.6500    0.0000 C   0  0  0  0  0  0  0  0  0  0  0  0
    2.1485   -4.2883    0.0000 C   0  0  0  0  0  0  0  0  0  0  0  0
    2.1485   -3.4548    0.0000 C   0  0  0  0  0  0  0  0  0  0  0  0
    5.7321   -2.4751    0.0000 O   0  0  0  0  0  0  0  0  0  0  0  0
    1.4266   -4.7095    0.0000 N   0  0  0  0  0  0  0  0  0  0  0  0
    6.4454   -1.2375    0.0000 O   0  0  0  0  0  0  0  0  0  0  0  0
    3.5751   -1.2375    0.0000 C   0  0  0  0  0  0  0  0  0  0  0  0
    7.8720   -4.2883    0.0000 C   0  0  0  0  0  0  0  0  0  0  0  0
    7.1673   -3.0594    0.0000 C   0  0  0  0  0  0  0  0  0  0  0  0
    5.0188   -0.4125    0.0000 C   0  0  0  0  0  0  0  0  0  0  0  0
    1.4266   -3.0594    0.0000 C   0  0  0  0  0  0  0  0  0  0  0  0
    0.7219   -4.2883    0.0000 C   0  0  0  0  0  0  0  0  0  0  0  0
    6.4454   -0.4125    0.0000 C   0  0  0  0  0  0  0  0  0  0  0  0
    8.5939   -4.6751    0.0000 C   0  0  0  0  0  0  0  0  0  0  0  0
    3.5751   -0.4125    0.0000 C   0  0  0  0  0  0  0  0  0  0  0  0
    4.2969    0.0000    0.0000 C   0  0  0  0  0  0  0  0  0  0  0  0
    0.0000   -4.6751    0.0000 C   0  0  0  0  0  0  0  0  0  0  0  0
    7.1587    0.0000    0.0000 C   0  0  0  0  0  0  0  0  0  0  0  0
    4.3141   -5.3368    0.0000 Cl  0  0  0  0  0  0  0  0  0  0  0  0
  1  2  2  0
  1  3  1  0
  1  5  1  0
  2  4  1  0
  2  6  1  0
  3  8  2  0
  3  9  1  0
  4 13  2  0
  4  7  1  0
  5 11  2  0
  6 12  2  0
  6 22  1  0
  7  9  1  0
  7 14  2  0
  8 10  1  0
 10 11  1  0
 10 15  2  0
 11 24  1  0
 12 16  1  0
 12 25  1  0
 13 18  1  0
 14 17  1  0
 15 23  1  0
 16 19  2  0
 16 21  1  0
 17 20  1  0
 17 18  2  0
 18 26  1  0
 20 27  1  0
 21 28  1  0
 22 30  2  0
 23 29  1  0
 25 31  2  0
 27 32  1  0
 28 33  1  0
 30 31  1  0
M  END
>  <Formula>  (530) 
C28H31ClN2O3

>  <FW>  (530) 
479.0103 (442.5494+36.4609)

>  <DSSTox_CID>  (530) 
1243

>  <NR-Aromatase>  (530) 
1

>  <NR-AR>  (530) 
0

>  <NR-ER-LBD>  (530) 
0

>  <SR-ARE>  (530) 
1

>  <SR-p53>  (530) 
1

$$$$
NCGC00164545-01
     RDKit          2D

 33 34  0  0  0  0  0  0  0  0999 V2000
    2.8589   -3.5607    0.0000 C   0  0  0  0  0  0  0  0  0  0  0  0
    2.8589   -4.3824    0.0000 C   0  0  0  0  0  0  0  0  0  0  0  0
    3.5778   -4.8018    0.0000 N   0  0  0  0  0  0  0  0  0  0  0  0
    4.2797   -4.3824    0.0000 C   0  0  0  0  0  0  0  0  0  0  0  0
    4.2797   -3.5607    0.0000 C   0  0  0  0  0  0  0  0  0  0  0  0
    3.5778   -3.1413    0.0000 C   0  0  0  0  0  0  0  0  0  0  0  0
    4.9816   -3.1413    0.0000 C   0  0  0  0  0  0  0  0  0  0  0  0
    5.7005   -3.5521    0.0000 O   0  0  0  0  0  0  0  0  0  0  0  0
    4.9816   -2.3282    0.0000 O   0  0  0  0  0  0  0  0  0  0  0  0
    6.4024   -3.1413    0.0000 C   0  0  0  0  0  0  0  0  0  0  0  0
    7.1214   -3.5521    0.0000 C   0  0  0  0  0  0  0  0  0  0  0  0
    4.9816   -4.8018    0.0000 C   0  0  0  0  0  0  0  0  0  0  0  0
    2.1484   -3.1413    0.0000 C   0  0  0  0  0  0  0  0  0  0  0  0
    1.4294   -3.5521    0.0000 O   0  0  0  0  0  0  0  0  0  0  0  0
    2.1484   -2.3367    0.0000 O   0  0  0  0  0  0  0  0  0  0  0  0
    0.7275   -3.1413    0.0000 C   0  0  0  0  0  0  0  0  0  0  0  0
    0.0000   -3.5521    0.0000 C   0  0  0  0  0  0  0  0  0  0  0  0
    2.1484   -4.8018    0.0000 C   0  0  0  0  0  0  0  0  0  0  0  0
    2.8503   -0.4109    0.0000 C   0  0  0  0  0  0  0  0  0  0  0  0
    2.8503   -1.2582    0.0000 C   0  0  0  0  0  0  0  0  0  0  0  0
    3.5778   -1.6862    0.0000 C   0  0  0  0  0  0  0  0  0  0  0  0
    4.2968   -1.2582    0.0000 C   0  0  0  0  0  0  0  0  0  0  0  0
    4.2968   -0.4109    0.0000 C   0  0  0  0  0  0  0  0  0  0  0  0
    3.5778    0.0000    0.0000 C   0  0  0  0  0  0  0  0  0  0  0  0
    4.9987   -1.6776    0.0000 C   0  0  0  0  0  0  0  0  0  0  0  0
    5.7091   -1.2582    0.0000 C   0  0  0  0  0  0  0  0  0  0  0  0
    6.4110   -1.6776    0.0000 C   0  0  0  0  0  0  0  0  0  0  0  0
    7.1300   -1.2496    0.0000 O   0  0  0  0  0  0  0  0  0  0  0  0
    6.4110   -2.4908    0.0000 O   0  0  0  0  0  0  0  0  0  0  0  0
    7.8404   -1.6605    0.0000 C   0  0  0  0  0  0  0  0  0  0  0  0
    7.4467   -2.3624    0.0000 C   0  0  0  0  0  0  0  0  0  0  0  0
    8.5594   -2.0628    0.0000 C   0  0  0  0  0  0  0  0  0  0  0  0
    8.2512   -0.9501    0.0000 C   0  0  0  0  0  0  0  0  0  0  0  0
  1  6  1  0
  1 13  1  0
  1  2  2  0
  2 18  1  0
  2  3  1  0
  3  4  1  0
  4  5  2  0
  4 12  1  0
  5  6  1  0
  5  7  1  0
  6 21  1  0
  7  8  1  0
  7  9  2  0
  8 10  1  0
 10 11  1  0
 13 14  1  0
 13 15  2  0
 14 16  1  0
 16 17  1  0
 19 20  2  0
 19 24  1  0
 20 21  1  0
 21 22  2  0
 22 23  1  0
 22 25  1  0
 23 24  2  0
 25 26  2  0
 26 27  1  0
 27 28  1  0
 27 29  2  0
 28 30  1  0
 30 31  1  0
 30 32  1  0
 30 33  1  0
M  END
>  <Formula>  (531) 
C26H33NO6

>  <FW>  (531) 
455.5433

>  <DSSTox_CID>  (531) 
26429

>  <NR-Aromatase>  (531) 
1

>  <NR-AR>  (531) 
0

>  <NR-ER-LBD>  (531) 
1

>  <NR-PPAR-gamma>  (531) 
1

>  <NR-AhR>  (531) 
1

>  <SR-p53>  (531) 
1

$$$$
NCGC00185772-01
     RDKit          2D

 60 67  0  0  1  0  0  0  0  0999 V2000
    6.2193   -2.5203    0.0000 S   0  0  0  0  0  0  0  0  0  0  0  0
    7.0434   -2.5203    0.0000 O   0  0  0  0  0  0  0  0  0  0  0  0
    5.3951   -2.5203    0.0000 O   0  0  0  0  0  0  0  0  0  0  0  0
    6.2193   -3.3444    0.0000 O   0  0  0  0  0  0  0  0  0  0  0  0
    6.2193   -1.6962    0.0000 O   0  0  0  0  0  0  0  0  0  0  0  0
    8.1454   -5.5293    0.0000 C   0  0  0  0  0  0  0  0  0  0  0  0
    8.1454   -6.3439    0.0000 C   0  0  0  0  0  0  0  0  0  0  0  0
    7.4363   -5.1077    0.0000 C   0  0  0  0  0  0  0  0  0  0  0  0
    7.4363   -6.7655    0.0000 C   0  0  0  0  0  0  0  0  0  0  0  0
    6.7272   -5.5293    0.0000 C   0  0  0  0  0  0  0  0  0  0  0  0
    6.7272   -6.3439    0.0000 C   0  0  0  0  0  0  0  0  0  0  0  0
    8.8738   -5.1077    0.0000 C   0  0  0  0  0  0  0  0  0  0  0  0
    8.8738   -4.2835    0.0000 C   0  0  0  0  0  0  0  0  0  0  0  0
    7.4363   -4.2835    0.0000 N   0  0  0  0  0  0  0  0  0  0  0  0
    8.1454   -3.8619    0.0000 C   0  0  0  0  0  0  0  0  0  0  0  0
    6.1618   -4.7052    0.0000 C   0  0  0  0  0  0  0  0  0  0  0  0
    6.6409   -4.0248    0.0000 C   0  0  0  0  0  0  0  0  0  0  0  0
    5.8359   -5.2227    0.0000 C   0  0  0  0  0  0  0  0  0  0  0  0
    5.4143   -5.9510    0.0000 C   0  0  0  0  0  0  0  0  0  0  0  0
    5.9318   -6.6026    0.0000 N   0  0  0  0  0  0  0  0  0  0  0  0
    5.4143   -4.5135    0.0000 C   0  0  0  0  0  0  0  0  0  0  0  0
    4.5902   -4.5135    0.0000 C   0  0  0  0  0  0  0  0  0  0  0  0
    4.5902   -5.9510    0.0000 C   0  0  0  0  0  0  0  0  0  0  0  0
    4.1782   -5.2227    0.0000 C   0  0  0  0  0  0  0  0  0  0  0  0
    3.3540   -5.2227    0.0000 O   0  0  0  0  0  0  0  0  0  0  0  0
    8.8738   -5.9414    0.0000 C   0  0  0  0  0  0  0  0  0  0  0  0
    9.5829   -5.5197    0.0000 C   0  0  0  0  0  0  0  0  0  0  0  0
    8.8738   -6.7655    0.0000 O   0  0  0  0  0  0  0  0  0  0  0  0
    7.8484   -7.4938    0.0000 O   0  0  0  0  0  0  0  0  0  0  0  0
    7.0338   -7.5225    0.0000 C   0  0  0  0  0  0  0  0  0  0  0  0
    6.2097   -7.5225    0.0000 O   0  0  0  0  0  0  0  0  0  0  0  0
    7.4842   -8.2029    0.0000 N   0  0  0  0  0  0  0  0  0  0  0  0
    5.6731   -7.3980    0.0000 C   0  0  0  0  0  0  0  0  0  0  0  0
    2.9324   -5.9510    0.0000 C   0  0  0  0  0  0  0  0  0  0  0  0
    4.6764   -0.4216    0.0000 C   0  0  0  0  0  0  0  0  0  0  0  0
    4.6764   -1.2362    0.0000 C   0  0  0  0  0  0  0  0  0  0  0  0
    3.9673    0.0000    0.0000 C   0  0  0  0  0  0  0  0  0  0  0  0
    3.9673   -1.6578    0.0000 C   0  0  0  0  0  0  0  0  0  0  0  0
    3.2582   -0.4216    0.0000 N   0  0  0  0  0  0  0  0  0  0  0  0
    3.2582   -1.2362    0.0000 C   0  0  0  0  0  0  0  0  0  0  0  0
    3.9673   -2.4820    0.0000 C   0  0  0  0  0  0  0  0  0  0  0  0
    3.2582   -2.8941    0.0000 C   0  0  0  0  0  0  0  0  0  0  0  0
    2.5299   -1.6578    0.0000 C   0  0  0  0  0  0  0  0  0  0  0  0
    2.5299   -2.4820    0.0000 C   0  0  0  0  0  0  0  0  0  0  0  0
    2.4628   -0.1629    0.0000 C   0  0  0  0  0  0  0  0  0  0  0  0
    1.9741   -0.8241    0.0000 C   0  0  0  0  0  0  0  0  0  0  0  0
    1.6578   -1.3512    0.0000 C   0  0  0  0  0  0  0  0  0  0  0  0
    1.2458   -2.0795    0.0000 C   0  0  0  0  0  0  0  0  0  0  0  0
    1.7345   -2.7407    0.0000 N   0  0  0  0  0  0  0  0  0  0  0  0
    1.2458   -0.6421    0.0000 C   0  0  0  0  0  0  0  0  0  0  0  0
    0.4216   -0.6421    0.0000 C   0  0  0  0  0  0  0  0  0  0  0  0
    0.4216   -2.0795    0.0000 C   0  0  0  0  0  0  0  0  0  0  0  0
    0.0000   -1.3512    0.0000 C   0  0  0  0  0  0  0  0  0  0  0  0
    5.4047    0.0000    0.0000 C   0  0  0  0  0  0  0  0  0  0  0  0
    6.1139   -0.4025    0.0000 C   0  0  0  0  0  0  0  0  0  0  0  0
    5.4047   -0.8241    0.0000 O   0  0  0  0  0  0  0  0  0  0  0  0
    2.8461   -3.6032    0.0000 C   0  0  0  0  0  0  0  0  0  0  0  0
    2.0220   -3.6032    0.0000 O   0  0  0  0  0  0  0  0  0  0  0  0
    3.2677   -4.3123    0.0000 O   0  0  0  0  0  0  0  0  0  0  0  0
    2.8557   -5.0406    0.0000 C   0  0  0  0  0  0  0  0  0  0  0  0
  1  2  2  0
  1  3  2  0
  1  4  1  0
  1  5  1  0
  6  7  1  0
  6 12  1  0
  6  8  1  0
  6 26  1  6
  7  9  1  0
  7 28  1  1
  8 10  1  0
  8 14  1  1
  9 11  1  0
  9 29  1  1
  9 30  1  0
 10 16  1  1
 10 18  1  0
 10 11  1  0
 11 20  1  6
 12 13  2  0
 13 15  1  0
 14 15  1  0
 14 17  1  0
 16 17  1  0
 18 21  2  0
 18 19  1  0
 19 20  1  0
 19 23  2  0
 20 33  1  0
 21 22  1  0
 22 24  2  0
 22 42  1  0
 23 24  1  0
 24 25  1  0
 25 34  1  0
 26 27  1  0
 30 31  2  0
 30 32  1  0
 35 36  1  0
 35 37  1  0
 35 54  1  0
 35 56  1  1
 38 36  1  6
 39 37  1  6
 38 41  1  0
 38 40  1  0
 39 45  1  0
 39 40  1  0
 41 42  1  0
 42 44  1  0
 42 57  1  1
 43 46  1  0
 43 47  1  0
 43 44  2  0
 44 49  1  0
 45 46  1  0
 47 50  2  0
 47 48  1  0
 48 49  1  0
 48 52  2  0
 50 51  1  0
 51 53  2  0
 52 53  1  0
 54 55  1  0
 57 58  2  0
 57 59  1  0
 59 60  1  0
M  END
>  <Formula>  (532) 
C43H57N5O11S

>  <FW>  (532) 
852.0046 (98.0785+753.9261)

>  <DSSTox_CID>  (532) 
29000

>  <NR-Aromatase>  (532) 
0

>  <NR-AR>  (532) 
0

>  <NR-ER>  (532) 
0

>  <SR-ATAD5>  (532) 
1

>  <SR-p53>  (532) 
1

$$$$
NCGC00254304-01
     RDKit          2D

 23 25  0  0  0  0  0  0  0  0999 V2000
    2.8705   -2.0940    0.0000 C   0  0  0  0  0  0  0  0  0  0  0  0
    3.6953   -2.0940    0.0000 C   0  0  0  0  0  0  0  0  0  0  0  0
    2.6242   -1.3121    0.0000 C   0  0  0  0  0  0  0  0  0  0  0  0
    2.4636   -2.8116    0.0000 C   0  0  0  0  0  0  0  0  0  0  0  0
    3.9523   -1.3121    0.0000 N   0  0  0  0  0  0  0  0  0  0  0  0
    4.1130   -2.8116    0.0000 C   0  0  0  0  0  0  0  0  0  0  0  0
    3.2883   -0.8247    0.0000 C   0  0  0  0  0  0  0  0  0  0  0  0
    1.8369   -1.0496    0.0000 C   0  0  0  0  0  0  0  0  0  0  0  0
    2.8705   -3.5239    0.0000 C   0  0  0  0  0  0  0  0  0  0  0  0
    4.7396   -1.0496    0.0000 C   0  0  0  0  0  0  0  0  0  0  0  0
    3.6953   -3.5239    0.0000 C   0  0  0  0  0  0  0  0  0  0  0  0
    3.2883    0.0000    0.0000 O   0  0  0  0  0  0  0  0  0  0  0  0
    1.2210   -1.6066    0.0000 C   0  0  0  0  0  0  0  0  0  0  0  0
    1.6709   -0.2463    0.0000 O   0  0  0  0  0  0  0  0  0  0  0  0
    2.4636   -4.2415    0.0000 F   0  0  0  0  0  0  0  0  0  0  0  0
    4.9110   -0.2463    0.0000 N   0  0  0  0  0  0  0  0  0  0  0  0
    5.3555   -1.6066    0.0000 O   0  0  0  0  0  0  0  0  0  0  0  0
    4.1130   -4.2415    0.0000 Cl  0  0  0  0  0  0  0  0  0  0  0  0
    1.3121   -2.4207    0.0000 C   0  0  0  0  0  0  0  0  0  0  0  0
    0.4177   -1.4406    0.0000 S   0  0  0  0  0  0  0  0  0  0  0  0
    0.5570   -2.7634    0.0000 C   0  0  0  0  0  0  0  0  0  0  0  0
    0.0000   -2.1529    0.0000 C   0  0  0  0  0  0  0  0  0  0  0  0
    0.3856   -3.5667    0.0000 Cl  0  0  0  0  0  0  0  0  0  0  0  0
  1  2  1  0
  1  3  1  0
  1  4  2  0
  2  5  1  0
  2  6  2  0
  3  7  1  0
  3  8  1  0
  4  9  1  0
  5 10  1  0
  5  7  1  0
  6 11  1  0
  7 12  2  0
  8 13  1  0
  8 14  2  0
  9 15  1  0
  9 11  2  0
 10 16  1  0
 10 17  2  0
 11 18  1  0
 13 19  2  0
 13 20  1  0
 19 21  1  0
 20 22  1  0
 21 23  1  0
 21 22  2  0
M  END
>  <Formula>  (533) 
C14H7Cl2FN2O3S

>  <FW>  (533) 
373.1864

>  <DSSTox_CID>  (533) 
27304

>  <NR-AR>  (533) 
0

>  <NR-ER-LBD>  (533) 
0

>  <NR-AhR>  (533) 
1

>  <SR-ATAD5>  (533) 
0

>  <SR-p53>  (533) 
1

$$$$
NCGC00254603-01
     RDKit          2D

 29 33  0  0  1  0  0  0  0  0999 V2000
    4.9523   -2.7041    0.0000 C   0  0  0  0  0  0  0  0  0  0  0  0
    4.2449   -3.9304    0.0000 C   0  0  0  0  0  0  0  0  0  0  0  0
    3.5374   -3.5059    0.0000 C   0  0  0  0  0  0  0  0  0  0  0  0
    4.9523   -3.5059    0.0000 C   0  0  0  0  0  0  0  0  0  0  0  0
    5.6598   -2.2797    0.0000 C   0  0  0  0  0  0  0  0  0  0  0  0
    2.8378   -3.9304    0.0000 C   0  0  0  0  0  0  0  0  0  0  0  0
    4.2449   -2.2797    0.0000 O   0  0  0  0  0  0  0  0  0  0  0  0
    3.5374   -2.7041    0.0000 C   0  0  0  0  0  0  0  0  0  0  0  0
    2.1303   -3.5059    0.0000 C   0  0  0  0  0  0  0  0  0  0  0  0
    6.9648   -2.1382    0.0000 O   0  0  0  0  0  0  0  0  0  0  0  0
    6.3674   -2.7041    0.0000 C   0  0  0  0  0  0  0  0  0  0  0  0
    5.8407   -1.4857    0.0000 C   0  0  0  0  0  0  0  0  0  0  0  0
    6.6503   -1.4071    0.0000 C   0  0  0  0  0  0  0  0  0  0  0  0
    2.8378   -4.7323    0.0000 C   0  0  0  0  0  0  0  0  0  0  0  0
    2.1303   -2.7041    0.0000 O   0  0  0  0  0  0  0  0  0  0  0  0
    1.4228   -3.9304    0.0000 C   0  0  0  0  0  0  0  0  0  0  0  0
    5.6598   -3.9304    0.0000 C   0  0  0  0  0  0  0  0  0  0  0  0
    2.1303   -5.1568    0.0000 C   0  0  0  0  0  0  0  0  0  0  0  0
    1.4228   -4.7323    0.0000 C   0  0  0  0  0  0  0  0  0  0  0  0
    7.0669   -0.7154    0.0000 C   0  0  0  0  0  0  0  0  0  0  0  0
    2.8378   -2.2797    0.0000 C   0  0  0  0  0  0  0  0  0  0  0  0
    4.2449   -4.7323    0.0000 O   0  0  0  0  0  0  0  0  0  0  0  0
    6.3674   -3.5059    0.0000 C   0  0  0  0  0  0  0  0  0  0  0  0
    6.6424    0.0000    0.0000 C   0  0  0  0  0  0  0  0  0  0  0  0
    2.1303   -5.9664    0.0000 O   0  0  0  0  0  0  0  0  0  0  0  0
    0.7075   -5.1646    0.0000 O   0  0  0  0  0  0  0  0  0  0  0  0
    7.8609   -0.7075    0.0000 C   0  0  0  0  0  0  0  0  0  0  0  0
    0.0000   -4.7401    0.0000 C   0  0  0  0  0  0  0  0  0  0  0  0
    1.4228   -6.3752    0.0000 C   0  0  0  0  0  0  0  0  0  0  0  0
  1  4  2  0
  1  5  1  0
  1  7  1  0
  2  4  1  0
  2 22  2  0
  3  2  1  1
  3  8  1  0
  3  6  1  0
  4 17  1  0
  5 11  2  0
  5 12  1  0
  6 14  2  0
  6  9  1  0
  7  8  1  0
  8 21  1  1
  9 15  1  0
  9 16  2  0
 10 11  1  0
 10 13  1  0
 11 23  1  0
 12 13  1  0
 13 20  1  6
 14 18  1  0
 15 21  1  0
 16 19  1  0
 17 23  2  0
 18 25  1  0
 18 19  2  0
 19 26  1  0
 20 24  2  0
 20 27  1  0
 25 29  1  0
 26 28  1  0
M  END
>  <Formula>  (534) 
C23H22O6

>  <FW>  (534) 
394.4172

>  <DSSTox_CID>  (534) 
1248

>  <NR-AR>  (534) 
0

>  <NR-AhR>  (534) 
0

>  <SR-ARE>  (534) 
1

>  <SR-ATAD5>  (534) 
0

>  <SR-p53>  (534) 
1

$$$$
NCGC00255171-01
     RDKit          2D

 27 30  0  0  0  0  0  0  0  0999 V2000
    3.1946   -2.8579    0.0000 C   0  0  0  0  0  0  0  0  0  0  0  0
    2.4838   -2.4390    0.0000 C   0  0  0  0  0  0  0  0  0  0  0  0
    2.5362   -1.6309    0.0000 C   0  0  0  0  0  0  0  0  0  0  0  0
    1.9527   -1.0474    0.0000 C   0  0  0  0  0  0  0  0  0  0  0  0
    1.1222   -1.1821    0.0000 C   0  0  0  0  0  0  0  0  0  0  0  0
    0.7107   -1.8928    0.0000 C   0  0  0  0  0  0  0  0  0  0  0  0
    1.0025   -2.6559    0.0000 C   0  0  0  0  0  0  0  0  0  0  0  0
    1.8030   -2.9028    0.0000 C   0  0  0  0  0  0  0  0  0  0  0  0
    1.9751   -3.6958    0.0000 C   0  0  0  0  0  0  0  0  0  0  0  0
    1.3916   -4.2793    0.0000 C   0  0  0  0  0  0  0  0  0  0  0  0
    0.5835   -4.0175    0.0000 C   0  0  0  0  0  0  0  0  0  0  0  0
    0.0000   -4.6011    0.0000 Cl  0  0  0  0  0  0  0  0  0  0  0  0
    0.4190   -3.2319    0.0000 C   0  0  0  0  0  0  0  0  0  0  0  0
    2.1247   -0.2544    0.0000 C   0  0  0  0  0  0  0  0  0  0  0  0
    2.9252    0.0000    0.0000 C   0  0  0  0  0  0  0  0  0  0  0  0
    3.5088   -0.5835    0.0000 C   0  0  0  0  0  0  0  0  0  0  0  0
    3.3293   -1.3766    0.0000 N   0  0  0  0  0  0  0  0  0  0  0  0
    3.9128   -2.4390    0.0000 C   0  0  0  0  0  0  0  0  0  0  0  0
    4.6235   -2.8579    0.0000 C   0  0  0  0  0  0  0  0  0  0  0  0
    4.6235   -3.6809    0.0000 N   0  0  0  0  0  0  0  0  0  0  0  0
    5.3417   -4.0924    0.0000 C   0  0  0  0  0  0  0  0  0  0  0  0
    5.3417   -4.9153    0.0000 O   0  0  0  0  0  0  0  0  0  0  0  0
    6.0525   -3.6809    0.0000 O   0  0  0  0  0  0  0  0  0  0  0  0
    6.7707   -4.0924    0.0000 C   0  0  0  0  0  0  0  0  0  0  0  0
    7.4814   -3.6809    0.0000 C   0  0  0  0  0  0  0  0  0  0  0  0
    3.9128   -4.0924    0.0000 C   0  0  0  0  0  0  0  0  0  0  0  0
    3.1946   -3.6809    0.0000 C   0  0  0  0  0  0  0  0  0  0  0  0
  1  2  2  0
  1 18  1  0
  1 27  1  0
  2  3  1  0
  2  8  1  0
  3  4  2  0
  3 17  1  0
  4  5  1  0
  4 14  1  0
  5  6  1  0
  6  7  1  0
  7  8  2  0
  7 13  1  0
  8  9  1  0
  9 10  2  0
 10 11  1  0
 11 12  1  0
 11 13  2  0
 14 15  2  0
 15 16  1  0
 16 17  2  0
 18 19  1  0
 19 20  1  0
 20 21  1  0
 20 26  1  0
 21 22  2  0
 21 23  1  0
 23 24  1  0
 24 25  1  0
 26 27  1  0
M  END
>  <Formula>  (535) 
C22H23ClN2O2

>  <FW>  (535) 
382.8832

>  <DSSTox_CID>  (535) 
3224

>  <NR-AR>  (535) 
0

>  <NR-ER-LBD>  (535) 
0

>  <NR-AhR>  (535) 
0

>  <SR-ARE>  (535) 
1

>  <SR-p53>  (535) 
1

$$$$
NCGC00095098-01
     RDKit          2D

 46 53  0  0  1  0  0  0  0  0999 V2000
    5.5847   -3.3635    0.0000 C   0  0  0  0  0  0  0  0  0  0  0  0
    5.5847   -2.5491    0.0000 C   0  0  0  0  0  0  0  0  0  0  0  0
    6.2933   -2.1366    0.0000 C   0  0  0  0  0  0  0  0  0  0  0  0
    6.2933   -1.3116    0.0000 C   0  0  0  0  0  0  0  0  0  0  0  0
    7.0126   -0.8990    0.0000 C   0  0  0  0  0  0  0  0  0  0  0  0
    7.7213   -1.3116    0.0000 C   0  0  0  0  0  0  0  0  0  0  0  0
    7.7213   -2.1366    0.0000 C   0  0  0  0  0  0  0  0  0  0  0  0
    7.0126   -2.5491    0.0000 C   0  0  0  0  0  0  0  0  0  0  0  0
    7.0126   -3.3635    0.0000 C   0  0  0  0  0  0  0  0  0  0  0  0
    6.2933   -3.7760    0.0000 C   0  0  0  0  0  0  0  0  0  0  0  0
    6.1241   -4.5905    0.0000 C   0  0  0  0  0  0  0  0  0  0  0  0
    6.6742   -5.1934    0.0000 O   0  0  0  0  0  0  0  0  0  0  0  0
    5.3097   -4.6751    0.0000 O   0  0  0  0  0  0  0  0  0  0  0  0
    4.9712   -3.9241    0.0000 C   0  0  0  0  0  0  0  0  0  0  0  0
    7.7213   -3.7760    0.0000 C   0  0  0  0  0  0  0  0  0  0  0  0
    8.4405   -3.3635    0.0000 C   0  0  0  0  0  0  0  0  0  0  0  0
    9.1492   -3.7760    0.0000 C   0  0  0  0  0  0  0  0  0  0  0  0
    9.1492   -4.6011    0.0000 C   0  0  0  0  0  0  0  0  0  0  0  0
    8.4405   -5.0135    0.0000 C   0  0  0  0  0  0  0  0  0  0  0  0
    7.7213   -4.6011    0.0000 C   0  0  0  0  0  0  0  0  0  0  0  0
    8.4405   -5.8386    0.0000 O   0  0  0  0  0  0  0  0  0  0  0  0
    9.1492   -6.2511    0.0000 C   0  0  0  0  0  0  0  0  0  0  0  0
    9.8684   -5.0135    0.0000 O   0  0  0  0  0  0  0  0  0  0  0  0
    9.8684   -3.3635    0.0000 O   0  0  0  0  0  0  0  0  0  0  0  0
   10.5771   -3.7760    0.0000 C   0  0  0  0  0  0  0  0  0  0  0  0
    8.3348   -0.7615    0.0000 O   0  0  0  0  0  0  0  0  0  0  0  0
    7.9963    0.0000    0.0000 C   0  0  0  0  0  0  0  0  0  0  0  0
    7.1819   -0.0952    0.0000 O   0  0  0  0  0  0  0  0  0  0  0  0
    4.8655   -2.1366    0.0000 O   0  0  0  0  0  0  0  0  0  0  0  0
    4.1568   -2.5491    0.0000 C   0  0  0  0  0  0  0  0  0  0  0  0
    3.4482   -2.1366    0.0000 C   0  0  0  0  0  0  0  0  0  0  0  0
    2.7289   -2.5491    0.0000 C   0  0  0  0  0  0  0  0  0  0  0  0
    2.7289   -3.3635    0.0000 C   0  0  0  0  0  0  0  0  0  0  0  0
    3.4482   -3.7760    0.0000 C   0  0  0  0  0  0  0  0  0  0  0  0
    4.1568   -3.3635    0.0000 O   0  0  0  0  0  0  0  0  0  0  0  0
    3.4482   -4.6011    0.0000 C   0  0  0  0  0  0  0  0  0  0  0  0
    2.7289   -5.0135    0.0000 O   0  0  0  0  0  0  0  0  0  0  0  0
    2.0202   -4.6011    0.0000 C   0  0  0  0  0  0  0  0  0  0  0  0
    2.0202   -3.7760    0.0000 O   0  0  0  0  0  0  0  0  0  0  0  0
    1.3010   -5.0135    0.0000 C   0  0  0  0  0  0  0  0  0  0  0  0
    1.2164   -5.8386    0.0000 S   0  0  0  0  0  0  0  0  0  0  0  0
    0.4125   -6.0078    0.0000 C   0  0  0  0  0  0  0  0  0  0  0  0
    0.0000   -5.2885    0.0000 C   0  0  0  0  0  0  0  0  0  0  0  0
    0.5500   -4.6856    0.0000 C   0  0  0  0  0  0  0  0  0  0  0  0
    2.0202   -2.1366    0.0000 O   0  0  0  0  0  0  0  0  0  0  0  0
    3.4482   -1.3116    0.0000 O   0  0  0  0  0  0  0  0  0  0  0  0
  1  2  1  0
  1 10  1  0
  1 14  1  0
  2  3  1  0
  2 29  1  0
  3  4  2  0
  3  8  1  0
  4  5  1  0
  5  6  2  0
  5 28  1  0
  6  7  1  0
  6 26  1  0
  7  8  2  0
  8  9  1  0
  9 10  1  0
  9 15  1  1
 10 11  1  1
 11 12  2  0
 11 13  1  0
 13 14  1  0
 15 16  2  0
 15 20  1  0
 16 17  1  0
 17 18  2  0
 17 24  1  0
 18 19  1  0
 18 23  1  0
 19 20  2  0
 19 21  1  0
 21 22  1  0
 24 25  1  0
 26 27  1  0
 27 28  1  0
 30 29  1  6
 30 31  1  0
 30 35  1  0
 31 32  1  0
 31 46  1  1
 32 33  1  0
 32 45  1  6
 33 34  1  0
 33 39  1  1
 34 35  1  0
 34 36  1  6
 36 37  1  0
 37 38  1  0
 38 39  1  0
 38 40  1  0
 40 41  1  0
 40 44  2  0
 41 42  1  0
 42 43  2  0
 43 44  1  0
M  END
>  <Formula>  (536) 
C32H32O13S

>  <FW>  (536) 
656.6537

>  <DSSTox_CID>  (536) 
3638

>  <NR-AR>  (536) 
0

>  <NR-ER-LBD>  (536) 
0

>  <SR-ATAD5>  (536) 
0

>  <SR-p53>  (536) 
1

$$$$
NCGC00181319-01
     RDKit          2D

 76 83  0  0  1  0  0  0  0  0999 V2000
    7.8792   -2.4741    0.0000 C   0  0  0  0  0  0  0  0  0  0  0  0
    8.5884   -2.8838    0.0000 C   0  0  0  0  0  0  0  0  0  0  0  0
    9.2975   -1.6389    0.0000 C   0  0  0  0  0  0  0  0  0  0  0  0
    9.2975   -2.4741    0.0000 C   0  0  0  0  0  0  0  0  0  0  0  0
    6.4452   -2.4741    0.0000 C   0  0  0  0  0  0  0  0  0  0  0  0
    7.1543   -2.8838    0.0000 C   0  0  0  0  0  0  0  0  0  0  0  0
    5.7203   -2.8838    0.0000 C   0  0  0  0  0  0  0  0  0  0  0  0
   10.7315   -1.6389    0.0000 C   0  0  0  0  0  0  0  0  0  0  0  0
    7.8792   -1.6389    0.0000 C   0  0  0  0  0  0  0  0  0  0  0  0
    5.0112   -2.4741    0.0000 C   0  0  0  0  0  0  0  0  0  0  0  0
    5.0112   -1.6389    0.0000 C   0  0  0  0  0  0  0  0  0  0  0  0
   10.0066   -1.2449    0.0000 C   0  0  0  0  0  0  0  0  0  0  0  0
    6.4452   -1.6389    0.0000 C   0  0  0  0  0  0  0  0  0  0  0  0
    8.5884   -1.2449    0.0000 C   0  0  0  0  0  0  0  0  0  0  0  0
   11.4406   -1.2449    0.0000 C   0  0  0  0  0  0  0  0  0  0  0  0
   10.0066   -2.8838    0.0000 O   0  0  0  0  0  0  0  0  0  0  0  0
    7.1543   -1.2449    0.0000 C   0  0  0  0  0  0  0  0  0  0  0  0
    5.7203   -1.2449    0.0000 C   0  0  0  0  0  0  0  0  0  0  0  0
    4.2863   -1.2449    0.0000 O   0  0  0  0  0  0  0  0  0  0  0  0
    8.5884   -3.7190    0.0000 O   0  0  0  0  0  0  0  0  0  0  0  0
   10.7315   -2.4741    0.0000 O   0  0  0  0  0  0  0  0  0  0  0  0
    7.1543   -3.7190    0.0000 O   0  0  0  0  0  0  0  0  0  0  0  0
    5.7203   -3.7190    0.0000 O   0  0  0  0  0  0  0  0  0  0  0  0
   12.1498   -1.6389    0.0000 C   0  0  0  0  0  0  0  0  0  0  0  0
   11.4406   -0.4097    0.0000 O   0  0  0  0  0  0  0  0  0  0  0  0
   10.0066   -0.4097    0.0000 O   0  0  0  0  0  0  0  0  0  0  0  0
    4.2863   -2.8838    0.0000 C   0  0  0  0  0  0  0  0  0  0  0  0
   12.1498   -2.4741    0.0000 O   0  0  0  0  0  0  0  0  0  0  0  0
   12.8747   -1.2449    0.0000 C   0  0  0  0  0  0  0  0  0  0  0  0
   10.7315    0.0000    0.0000 C   0  0  0  0  0  0  0  0  0  0  0  0
    3.5772   -1.6389    0.0000 C   0  0  0  0  0  0  0  0  0  0  0  0
    3.5772   -2.4741    0.0000 C   0  0  0  0  0  0  0  0  0  0  0  0
    2.8681   -1.2449    0.0000 O   0  0  0  0  0  0  0  0  0  0  0  0
    2.8681   -2.8838    0.0000 C   0  0  0  0  0  0  0  0  0  0  0  0
    2.1589   -1.6389    0.0000 C   0  0  0  0  0  0  0  0  0  0  0  0
    2.1589   -2.4741    0.0000 C   0  0  0  0  0  0  0  0  0  0  0  0
    2.8681   -3.7190    0.0000 O   0  0  0  0  0  0  0  0  0  0  0  0
    1.4340   -2.8838    0.0000 O   0  0  0  0  0  0  0  0  0  0  0  0
    1.4340   -1.2449    0.0000 C   0  0  0  0  0  0  0  0  0  0  0  0
    2.1589   -4.1287    0.0000 C   0  0  0  0  0  0  0  0  0  0  0  0
    2.1589   -4.9481    0.0000 C   0  0  0  0  0  0  0  0  0  0  0  0
    1.4340   -3.7190    0.0000 O   0  0  0  0  0  0  0  0  0  0  0  0
    1.4340   -5.3736    0.0000 C   0  0  0  0  0  0  0  0  0  0  0  0
    0.7249   -4.1287    0.0000 C   0  0  0  0  0  0  0  0  0  0  0  0
    0.7249   -4.9481    0.0000 C   0  0  0  0  0  0  0  0  0  0  0  0
    1.4340   -6.1931    0.0000 O   0  0  0  0  0  0  0  0  0  0  0  0
    0.0000   -5.3736    0.0000 O   0  0  0  0  0  0  0  0  0  0  0  0
    0.0000   -3.7190    0.0000 C   0  0  0  0  0  0  0  0  0  0  0  0
   10.0066   -3.7190    0.0000 C   0  0  0  0  0  0  0  0  0  0  0  0
   10.7315   -4.1287    0.0000 C   0  0  0  0  0  0  0  0  0  0  0  0
    9.2975   -4.1287    0.0000 O   0  0  0  0  0  0  0  0  0  0  0  0
   10.7315   -4.9481    0.0000 C   0  0  0  0  0  0  0  0  0  0  0  0
    9.2975   -4.9481    0.0000 C   0  0  0  0  0  0  0  0  0  0  0  0
   10.0066   -5.3736    0.0000 C   0  0  0  0  0  0  0  0  0  0  0  0
   11.4406   -5.3736    0.0000 O   0  0  0  0  0  0  0  0  0  0  0  0
   10.0066   -6.1931    0.0000 O   0  0  0  0  0  0  0  0  0  0  0  0
    8.5884   -5.3736    0.0000 C   0  0  0  0  0  0  0  0  0  0  0  0
   12.1813   -4.9797    0.0000 C   0  0  0  0  0  0  0  0  0  0  0  0
   12.1813   -4.1603    0.0000 C   0  0  0  0  0  0  0  0  0  0  0  0
   12.8904   -5.3894    0.0000 O   0  0  0  0  0  0  0  0  0  0  0  0
   12.8904   -3.7348    0.0000 C   0  0  0  0  0  0  0  0  0  0  0  0
   13.6153   -4.9797    0.0000 C   0  0  0  0  0  0  0  0  0  0  0  0
   13.6153   -4.1603    0.0000 C   0  0  0  0  0  0  0  0  0  0  0  0
   12.8904   -2.9153    0.0000 O   0  0  0  0  0  0  0  0  0  0  0  0
   14.3245   -3.7348    0.0000 O   0  0  0  0  0  0  0  0  0  0  0  0
   14.3245   -5.3894    0.0000 C   0  0  0  0  0  0  0  0  0  0  0  0
   13.6153   -2.5056    0.0000 C   0  0  0  0  0  0  0  0  0  0  0  0
   13.6153   -1.6861    0.0000 C   0  0  0  0  0  0  0  0  0  0  0  0
   14.3245   -2.9153    0.0000 O   0  0  0  0  0  0  0  0  0  0  0  0
   14.3245   -1.2607    0.0000 C   0  0  0  0  0  0  0  0  0  0  0  0
   15.0493   -2.5056    0.0000 C   0  0  0  0  0  0  0  0  0  0  0  0
   15.0493   -1.6861    0.0000 C   0  0  0  0  0  0  0  0  0  0  0  0
   13.9148   -0.5516    0.0000 O   0  0  0  0  0  0  0  0  0  0  0  0
   14.7499   -0.5516    0.0000 C   0  0  0  0  0  0  0  0  0  0  0  0
   15.7585   -1.2607    0.0000 O   0  0  0  0  0  0  0  0  0  0  0  0
   15.7585   -2.9153    0.0000 C   0  0  0  0  0  0  0  0  0  0  0  0
  1  2  1  0
  1  6  1  0
  1  9  2  0
  2  4  1  0
  2 20  2  0
  3 14  1  0
  3 12  1  0
  3  4  1  0
  4 16  1  6
  5  6  2  0
  5  7  1  0
  5 13  1  0
  6 22  1  0
  7 10  2  0
  7 23  1  0
  8 12  1  0
  8 15  1  0
  8 21  2  0
  9 14  1  0
  9 17  1  0
 10 27  1  0
 10 11  1  0
 11 18  2  0
 11 19  1  0
 12 26  1  6
 13 17  2  0
 13 18  1  0
 15 24  1  0
 15 25  1  1
 49 16  1  1
 31 19  1  1
 24 28  1  0
 24 29  1  1
 26 30  1  0
 31 32  1  0
 31 33  1  0
 32 34  1  0
 33 35  1  0
 34 36  1  0
 34 37  1  1
 35 36  1  0
 35 39  1  1
 36 38  1  1
 40 37  1  1
 40 41  1  0
 40 42  1  0
 41 43  1  0
 42 44  1  0
 43 45  1  0
 43 46  1  1
 44 45  1  0
 44 48  1  1
 45 47  1  6
 49 50  1  0
 49 51  1  0
 50 52  1  0
 51 53  1  0
 52 54  1  0
 52 55  1  1
 53 54  1  0
 53 57  1  1
 54 56  1  6
 58 55  1  1
 58 59  1  0
 58 60  1  0
 59 61  1  0
 60 62  1  0
 61 63  1  0
 61 64  1  1
 62 63  1  0
 62 66  1  1
 63 65  1  6
 67 64  1  1
 67 68  1  0
 67 69  1  0
 68 70  1  0
 69 71  1  0
 70 72  1  0
 70 73  1  0
 70 74  1  1
 71 72  1  0
 71 76  1  1
 72 75  1  6
M  END
>  <Formula>  (537) 
C52H76O24

>  <FW>  (537) 
1085.1454

>  <DSSTox_CID>  (537) 
3492

>  <NR-Aromatase>  (537) 
1

>  <NR-AR>  (537) 
0

>  <NR-ER-LBD>  (537) 
0

>  <SR-ATAD5>  (537) 
0

>  <SR-MMP>  (537) 
1

>  <SR-p53>  (537) 
1

$$$$
NCGC00181319-05
     RDKit          2D

 76 83  0  0  1  0  0  0  0  0999 V2000
    7.8792   -2.4741    0.0000 C   0  0  0  0  0  0  0  0  0  0  0  0
    8.5884   -2.8838    0.0000 C   0  0  0  0  0  0  0  0  0  0  0  0
    9.2975   -1.6389    0.0000 C   0  0  0  0  0  0  0  0  0  0  0  0
    9.2975   -2.4741    0.0000 C   0  0  0  0  0  0  0  0  0  0  0  0
    6.4452   -2.4741    0.0000 C   0  0  0  0  0  0  0  0  0  0  0  0
    7.1543   -2.8838    0.0000 C   0  0  0  0  0  0  0  0  0  0  0  0
    5.7203   -2.8838    0.0000 C   0  0  0  0  0  0  0  0  0  0  0  0
   10.7315   -1.6389    0.0000 C   0  0  0  0  0  0  0  0  0  0  0  0
    7.8792   -1.6389    0.0000 C   0  0  0  0  0  0  0  0  0  0  0  0
    5.0112   -2.4741    0.0000 C   0  0  0  0  0  0  0  0  0  0  0  0
    5.0112   -1.6389    0.0000 C   0  0  0  0  0  0  0  0  0  0  0  0
   10.0066   -1.2449    0.0000 C   0  0  0  0  0  0  0  0  0  0  0  0
    6.4452   -1.6389    0.0000 C   0  0  0  0  0  0  0  0  0  0  0  0
    8.5884   -1.2449    0.0000 C   0  0  0  0  0  0  0  0  0  0  0  0
   11.4406   -1.2449    0.0000 C   0  0  0  0  0  0  0  0  0  0  0  0
   10.0066   -2.8838    0.0000 O   0  0  0  0  0  0  0  0  0  0  0  0
    7.1543   -1.2449    0.0000 C   0  0  0  0  0  0  0  0  0  0  0  0
    5.7203   -1.2449    0.0000 C   0  0  0  0  0  0  0  0  0  0  0  0
    4.2863   -1.2449    0.0000 O   0  0  0  0  0  0  0  0  0  0  0  0
    8.5884   -3.7190    0.0000 O   0  0  0  0  0  0  0  0  0  0  0  0
   10.7315   -2.4741    0.0000 O   0  0  0  0  0  0  0  0  0  0  0  0
    7.1543   -3.7190    0.0000 O   0  0  0  0  0  0  0  0  0  0  0  0
    5.7203   -3.7190    0.0000 O   0  0  0  0  0  0  0  0  0  0  0  0
   12.1498   -1.6389    0.0000 C   0  0  0  0  0  0  0  0  0  0  0  0
   11.4406   -0.4097    0.0000 O   0  0  0  0  0  0  0  0  0  0  0  0
   10.0066   -0.4097    0.0000 O   0  0  0  0  0  0  0  0  0  0  0  0
    4.2863   -2.8838    0.0000 C   0  0  0  0  0  0  0  0  0  0  0  0
   12.1498   -2.4741    0.0000 O   0  0  0  0  0  0  0  0  0  0  0  0
   12.8747   -1.2449    0.0000 C   0  0  0  0  0  0  0  0  0  0  0  0
   10.7315    0.0000    0.0000 C   0  0  0  0  0  0  0  0  0  0  0  0
    3.5772   -1.6389    0.0000 C   0  0  0  0  0  0  0  0  0  0  0  0
    3.5772   -2.4741    0.0000 C   0  0  0  0  0  0  0  0  0  0  0  0
    2.8681   -1.2449    0.0000 O   0  0  0  0  0  0  0  0  0  0  0  0
    2.8681   -2.8838    0.0000 C   0  0  0  0  0  0  0  0  0  0  0  0
    2.1589   -1.6389    0.0000 C   0  0  0  0  0  0  0  0  0  0  0  0
    2.1589   -2.4741    0.0000 C   0  0  0  0  0  0  0  0  0  0  0  0
    2.8681   -3.7190    0.0000 O   0  0  0  0  0  0  0  0  0  0  0  0
    1.4340   -2.8838    0.0000 O   0  0  0  0  0  0  0  0  0  0  0  0
    1.4340   -1.2449    0.0000 C   0  0  0  0  0  0  0  0  0  0  0  0
    2.1589   -4.1287    0.0000 C   0  0  0  0  0  0  0  0  0  0  0  0
    2.1589   -4.9481    0.0000 C   0  0  0  0  0  0  0  0  0  0  0  0
    1.4340   -3.7190    0.0000 O   0  0  0  0  0  0  0  0  0  0  0  0
    1.4340   -5.3736    0.0000 C   0  0  0  0  0  0  0  0  0  0  0  0
    0.7249   -4.1287    0.0000 C   0  0  0  0  0  0  0  0  0  0  0  0
    0.7249   -4.9481    0.0000 C   0  0  0  0  0  0  0  0  0  0  0  0
    1.4340   -6.1931    0.0000 O   0  0  0  0  0  0  0  0  0  0  0  0
    0.0000   -5.3736    0.0000 O   0  0  0  0  0  0  0  0  0  0  0  0
    0.0000   -3.7190    0.0000 C   0  0  0  0  0  0  0  0  0  0  0  0
   10.0066   -3.7190    0.0000 C   0  0  0  0  0  0  0  0  0  0  0  0
   10.7315   -4.1287    0.0000 C   0  0  0  0  0  0  0  0  0  0  0  0
    9.2975   -4.1287    0.0000 O   0  0  0  0  0  0  0  0  0  0  0  0
   10.7315   -4.9481    0.0000 C   0  0  0  0  0  0  0  0  0  0  0  0
    9.2975   -4.9481    0.0000 C   0  0  0  0  0  0  0  0  0  0  0  0
   10.0066   -5.3736    0.0000 C   0  0  0  0  0  0  0  0  0  0  0  0
   11.4406   -5.3736    0.0000 O   0  0  0  0  0  0  0  0  0  0  0  0
   10.0066   -6.1931    0.0000 O   0  0  0  0  0  0  0  0  0  0  0  0
    8.5884   -5.3736    0.0000 C   0  0  0  0  0  0  0  0  0  0  0  0
   12.1813   -4.9797    0.0000 C   0  0  0  0  0  0  0  0  0  0  0  0
   12.1813   -4.1603    0.0000 C   0  0  0  0  0  0  0  0  0  0  0  0
   12.8904   -5.3894    0.0000 O   0  0  0  0  0  0  0  0  0  0  0  0
   12.8904   -3.7348    0.0000 C   0  0  0  0  0  0  0  0  0  0  0  0
   13.6153   -4.9797    0.0000 C   0  0  0  0  0  0  0  0  0  0  0  0
   13.6153   -4.1603    0.0000 C   0  0  0  0  0  0  0  0  0  0  0  0
   12.8904   -2.9153    0.0000 O   0  0  0  0  0  0  0  0  0  0  0  0
   14.3245   -3.7348    0.0000 O   0  0  0  0  0  0  0  0  0  0  0  0
   14.3245   -5.3894    0.0000 C   0  0  0  0  0  0  0  0  0  0  0  0
   13.6153   -2.5056    0.0000 C   0  0  0  0  0  0  0  0  0  0  0  0
   13.6153   -1.6861    0.0000 C   0  0  0  0  0  0  0  0  0  0  0  0
   14.3245   -2.9153    0.0000 O   0  0  0  0  0  0  0  0  0  0  0  0
   14.3245   -1.2607    0.0000 C   0  0  0  0  0  0  0  0  0  0  0  0
   15.0493   -2.5056    0.0000 C   0  0  0  0  0  0  0  0  0  0  0  0
   15.0493   -1.6861    0.0000 C   0  0  0  0  0  0  0  0  0  0  0  0
   13.9148   -0.5516    0.0000 O   0  0  0  0  0  0  0  0  0  0  0  0
   14.7499   -0.5516    0.0000 C   0  0  0  0  0  0  0  0  0  0  0  0
   15.7585   -1.2607    0.0000 O   0  0  0  0  0  0  0  0  0  0  0  0
   15.7585   -2.9153    0.0000 C   0  0  0  0  0  0  0  0  0  0  0  0
  1  2  1  0
  1  6  1  0
  1  9  2  0
  2  4  1  0
  2 20  2  0
  3 14  1  0
  3 12  1  0
  3  4  1  0
  4 16  1  6
  5  6  2  0
  5  7  1  0
  5 13  1  0
  6 22  1  0
  7 10  2  0
  7 23  1  0
  8 12  1  0
  8 15  1  0
  8 21  2  0
  9 14  1  0
  9 17  1  0
 10 27  1  0
 10 11  1  0
 11 18  2  0
 11 19  1  0
 12 26  1  6
 13 17  2  0
 13 18  1  0
 15 24  1  0
 15 25  1  1
 49 16  1  1
 31 19  1  1
 24 28  1  0
 24 29  1  1
 26 30  1  0
 31 32  1  0
 31 33  1  0
 32 34  1  0
 33 35  1  0
 34 36  1  0
 34 37  1  1
 35 36  1  0
 35 39  1  1
 36 38  1  1
 40 37  1  1
 40 41  1  0
 40 42  1  0
 41 43  1  0
 42 44  1  0
 43 45  1  0
 43 46  1  1
 44 45  1  0
 44 48  1  1
 45 47  1  6
 49 50  1  0
 49 51  1  0
 50 52  1  0
 51 53  1  0
 52 54  1  0
 52 55  1  1
 53 54  1  0
 53 57  1  1
 54 56  1  6
 58 55  1  1
 58 59  1  0
 58 60  1  0
 59 61  1  0
 60 62  1  0
 61 63  1  0
 61 64  1  1
 62 63  1  0
 62 66  1  1
 63 65  1  6
 67 64  1  1
 67 68  1  0
 67 69  1  0
 68 70  1  0
 69 71  1  0
 70 72  1  0
 70 73  1  0
 70 74  1  1
 71 72  1  0
 71 76  1  1
 72 75  1  6
M  END
>  <Formula>  (538) 
C52H76O24

>  <FW>  (538) 
1085.1454

>  <DSSTox_CID>  (538) 
3492

>  <NR-Aromatase>  (538) 
1

>  <NR-AR>  (538) 
0

>  <NR-ER-LBD>  (538) 
0

>  <SR-ATAD5>  (538) 
0

>  <SR-MMP>  (538) 
1

>  <SR-p53>  (538) 
1

$$$$
NCGC00260031-01
     RDKit          2D

 90 96  0  0  1  0  0  0  0  0999 V2000
    7.9325   -7.8604    0.0000 C   0  0  0  0  0  0  0  0  0  0  0  0
    7.9325   -8.6824    0.0000 C   0  0  0  0  0  0  0  0  0  0  0  0
    8.6392   -7.4565    0.0000 C   0  0  0  0  0  0  0  0  0  0  0  0
    7.2113   -7.4565    0.0000 N   0  0  0  0  0  0  0  0  0  0  0  0
    7.2113   -9.1007    0.0000 O   0  0  0  0  0  0  0  0  0  0  0  0
    8.6392   -9.1007    0.0000 C   0  0  0  0  0  0  0  0  0  0  0  0
    8.6392   -6.6345    0.0000 C   0  0  0  0  0  0  0  0  0  0  0  0
    9.3603   -7.8604    0.0000 C   0  0  0  0  0  0  0  0  0  0  0  0
    6.5046   -7.8604    0.0000 C   0  0  0  0  0  0  0  0  0  0  0  0
    6.5046   -8.6824    0.0000 C   0  0  0  0  0  0  0  0  0  0  0  0
    9.3603   -8.6824    0.0000 C   0  0  0  0  0  0  0  0  0  0  0  0
    8.6392   -9.9228    0.0000 C   0  0  0  0  0  0  0  0  0  0  0  0
    9.3603   -6.2162    0.0000 N   0  0  0  0  0  0  0  0  0  0  0  0
    7.9325   -6.2162    0.0000 O   0  0  0  0  0  0  0  0  0  0  0  0
   10.0670   -7.4565    0.0000 N   0  0  0  0  0  0  0  0  0  0  0  0
    5.7835   -7.4565    0.0000 C   0  0  0  0  0  0  0  0  0  0  0  0
    5.7835   -9.1007    0.0000 C   0  0  0  0  0  0  0  0  0  0  0  0
   10.0670   -9.1007    0.0000 O   0  0  0  0  0  0  0  0  0  0  0  0
    5.7835   -6.6345    0.0000 C   0  0  0  0  0  0  0  0  0  0  0  0
    5.0768   -7.8604    0.0000 C   0  0  0  0  0  0  0  0  0  0  0  0
    5.0768   -8.6824    0.0000 C   0  0  0  0  0  0  0  0  0  0  0  0
    5.7835   -9.9228    0.0000 C   0  0  0  0  0  0  0  0  0  0  0  0
    5.0768   -6.2162    0.0000 N   0  0  0  0  0  0  0  0  0  0  0  0
    6.5046   -6.2162    0.0000 O   0  0  0  0  0  0  0  0  0  0  0  0
    9.3603   -5.3508    0.0000 C   0  0  0  0  0  0  0  0  0  0  0  0
    8.6103   -4.9181    0.0000 C   0  0  0  0  0  0  0  0  0  0  0  0
   10.0958   -4.9181    0.0000 C   0  0  0  0  0  0  0  0  0  0  0  0
    8.6103   -1.5721    0.0000 N   0  0  0  0  0  0  0  0  0  0  0  0
    7.8748   -5.3508    0.0000 O   0  0  0  0  0  0  0  0  0  0  0  0
   10.0958   -4.0672    0.0000 C   0  0  0  0  0  0  0  0  0  0  0  0
   10.8603   -5.3364    0.0000 O   0  0  0  0  0  0  0  0  0  0  0  0
   11.5670   -4.9325    0.0000 C   0  0  0  0  0  0  0  0  0  0  0  0
   11.5670   -4.1105    0.0000 O   0  0  0  0  0  0  0  0  0  0  0  0
    9.2882   -1.2403    0.0000 C   0  0  0  0  0  0  0  0  0  0  0  0
    9.2882   -0.4183    0.0000 C   0  0  0  0  0  0  0  0  0  0  0  0
   10.7593   -1.6442    0.0000 C   0  0  0  0  0  0  0  0  0  0  0  0
   12.3314   -1.0096    0.0000 N   0  0  0  0  0  0  0  0  0  0  0  0
   10.7593   -2.4663    0.0000 O   0  0  0  0  0  0  0  0  0  0  0  0
   12.5910   -0.2163    0.0000 C   0  0  0  0  0  0  0  0  0  0  0  0
   12.9948   -1.4999    0.0000 C   0  0  0  0  0  0  0  0  0  0  0  0
   13.4131   -0.2163    0.0000 C   0  0  0  0  0  0  0  0  0  0  0  0
   13.6727   -1.0096    0.0000 C   0  0  0  0  0  0  0  0  0  0  0  0
    8.5671    0.0000    0.0000 C   0  0  0  0  0  0  0  0  0  0  0  0
    9.9949    0.0000    0.0000 C   0  0  0  0  0  0  0  0  0  0  0  0
   12.9948   -2.4519    0.0000 C   0  0  0  0  0  0  0  0  0  0  0  0
   12.3025   -2.8701    0.0000 O   0  0  0  0  0  0  0  0  0  0  0  0
   13.7160   -2.8701    0.0000 N   0  0  0  0  0  0  0  0  0  0  0  0
   13.7160   -3.6922    0.0000 C   0  0  0  0  0  0  0  0  0  0  0  0
   14.4227   -2.4519    0.0000 C   0  0  0  0  0  0  0  0  0  0  0  0
   12.9948   -4.1105    0.0000 C   0  0  0  0  0  0  0  0  0  0  0  0
   12.3025   -3.6922    0.0000 O   0  0  0  0  0  0  0  0  0  0  0  0
   12.9948   -4.9325    0.0000 N   0  0  0  0  0  0  0  0  0  0  0  0
   13.7160   -5.3364    0.0000 C   0  0  0  0  0  0  0  0  0  0  0  0
   12.3025   -5.3364    0.0000 C   0  0  0  0  0  0  0  0  0  0  0  0
   12.3025   -6.1585    0.0000 C   0  0  0  0  0  0  0  0  0  0  0  0
   12.9948   -6.5767    0.0000 C   0  0  0  0  0  0  0  0  0  0  0  0
   11.5670   -6.5767    0.0000 C   0  0  0  0  0  0  0  0  0  0  0  0
    5.0768   -5.3508    0.0000 C   0  0  0  0  0  0  0  0  0  0  0  0
    5.8268   -4.9181    0.0000 C   0  0  0  0  0  0  0  0  0  0  0  0
    4.3412   -4.9181    0.0000 C   0  0  0  0  0  0  0  0  0  0  0  0
    5.8268   -1.5721    0.0000 N   0  0  0  0  0  0  0  0  0  0  0  0
    6.5623   -5.3508    0.0000 O   0  0  0  0  0  0  0  0  0  0  0  0
    4.3412   -4.0672    0.0000 C   0  0  0  0  0  0  0  0  0  0  0  0
    3.5624   -5.3364    0.0000 O   0  0  0  0  0  0  0  0  0  0  0  0
    2.8557   -4.9325    0.0000 C   0  0  0  0  0  0  0  0  0  0  0  0
    2.8557   -4.1105    0.0000 O   0  0  0  0  0  0  0  0  0  0  0  0
    5.1489   -1.2403    0.0000 C   0  0  0  0  0  0  0  0  0  0  0  0
    5.1489   -0.4183    0.0000 C   0  0  0  0  0  0  0  0  0  0  0  0
    3.6778   -1.6442    0.0000 C   0  0  0  0  0  0  0  0  0  0  0  0
    2.0913   -1.0096    0.0000 N   0  0  0  0  0  0  0  0  0  0  0  0
    3.6778   -2.4663    0.0000 O   0  0  0  0  0  0  0  0  0  0  0  0
    1.8317   -0.2163    0.0000 C   0  0  0  0  0  0  0  0  0  0  0  0
    1.4278   -1.4999    0.0000 C   0  0  0  0  0  0  0  0  0  0  0  0
    1.0096   -0.2163    0.0000 C   0  0  0  0  0  0  0  0  0  0  0  0
    0.7644   -1.0096    0.0000 C   0  0  0  0  0  0  0  0  0  0  0  0
    5.8556    0.0000    0.0000 C   0  0  0  0  0  0  0  0  0  0  0  0
    4.4278    0.0000    0.0000 C   0  0  0  0  0  0  0  0  0  0  0  0
    1.4278   -2.4519    0.0000 C   0  0  0  0  0  0  0  0  0  0  0  0
    2.1345   -2.8701    0.0000 O   0  0  0  0  0  0  0  0  0  0  0  0
    0.7067   -2.8701    0.0000 N   0  0  0  0  0  0  0  0  0  0  0  0
    0.7067   -3.6922    0.0000 C   0  0  0  0  0  0  0  0  0  0  0  0
    0.0000   -2.4519    0.0000 C   0  0  0  0  0  0  0  0  0  0  0  0
    1.4278   -4.1105    0.0000 C   0  0  0  0  0  0  0  0  0  0  0  0
    2.1345   -3.6922    0.0000 O   0  0  0  0  0  0  0  0  0  0  0  0
    1.4278   -4.9325    0.0000 N   0  0  0  0  0  0  0  0  0  0  0  0
    0.7067   -5.3364    0.0000 C   0  0  0  0  0  0  0  0  0  0  0  0
    2.1345   -5.3364    0.0000 C   0  0  0  0  0  0  0  0  0  0  0  0
    2.1345   -6.1585    0.0000 C   0  0  0  0  0  0  0  0  0  0  0  0
    1.4278   -6.5767    0.0000 C   0  0  0  0  0  0  0  0  0  0  0  0
    2.8557   -6.5767    0.0000 C   0  0  0  0  0  0  0  0  0  0  0  0
  1  2  1  0
  1  3  1  0
  1  4  2  0
  2  5  1  0
  2  6  2  0
  3  7  1  0
  3  8  2  0
  4  9  1  0
  5 10  1  0
  6 11  1  0
  6 12  1  0
  7 13  1  0
  7 14  2  0
  8 15  1  0
  8 11  1  0
  9 16  2  0
  9 10  1  0
 10 17  2  0
 11 18  2  0
 25 13  1  6
 16 19  1  0
 16 20  1  0
 17 21  1  0
 17 22  1  0
 19 23  1  0
 19 24  2  0
 20 21  2  0
 58 23  1  1
 25 26  1  0
 25 27  1  0
 26 28  1  0
 26 29  2  0
 27 30  1  1
 27 31  1  0
 28 34  1  0
 31 32  1  0
 32 33  2  0
 32 54  1  0
 34 35  1  6
 34 36  1  0
 35 43  1  0
 35 44  1  0
 36 37  1  0
 36 38  2  0
 37 39  1  0
 37 40  1  0
 39 41  1  0
 40 42  1  1
 40 45  1  0
 41 42  1  0
 45 46  2  0
 45 47  1  0
 47 48  1  0
 47 49  1  0
 48 50  1  0
 50 51  2  0
 50 52  1  0
 52 53  1  0
 52 54  1  0
 54 55  1  1
 55 56  1  0
 55 57  1  0
 58 59  1  0
 58 60  1  0
 59 61  1  0
 59 62  2  0
 60 63  1  6
 60 64  1  0
 61 67  1  0
 64 65  1  0
 65 66  2  0
 65 87  1  0
 67 68  1  1
 67 69  1  0
 68 76  1  0
 68 77  1  0
 69 70  1  0
 69 71  2  0
 70 72  1  0
 70 73  1  0
 72 74  1  0
 73 75  1  6
 73 78  1  0
 74 75  1  0
 78 79  2  0
 78 80  1  0
 80 81  1  0
 80 82  1  0
 81 83  1  0
 83 84  2  0
 83 85  1  0
 85 86  1  0
 85 87  1  0
 87 88  1  6
 88 89  1  0
 88 90  1  0
M  END
>  <Formula>  (539) 
C62H86N12O16

>  <FW>  (539) 
1255.4170

>  <DSSTox_CID>  (539) 
31

>  <NR-Aromatase>  (539) 
1

>  <NR-AR>  (539) 
0

>  <NR-ER-LBD>  (539) 
0

>  <NR-AhR>  (539) 
0

>  <SR-HSE>  (539) 
0

>  <SR-p53>  (539) 
1

$$$$
NCGC00017358-05
     RDKit          2D

 29 33  0  0  1  0  0  0  0  0999 V2000
    4.9523   -2.7041    0.0000 C   0  0  0  0  0  0  0  0  0  0  0  0
    4.2449   -3.9304    0.0000 C   0  0  0  0  0  0  0  0  0  0  0  0
    3.5374   -3.5059    0.0000 C   0  0  0  0  0  0  0  0  0  0  0  0
    4.9523   -3.5059    0.0000 C   0  0  0  0  0  0  0  0  0  0  0  0
    5.6598   -2.2797    0.0000 C   0  0  0  0  0  0  0  0  0  0  0  0
    2.8378   -3.9304    0.0000 C   0  0  0  0  0  0  0  0  0  0  0  0
    4.2449   -2.2797    0.0000 O   0  0  0  0  0  0  0  0  0  0  0  0
    3.5374   -2.7041    0.0000 C   0  0  0  0  0  0  0  0  0  0  0  0
    2.1303   -3.5059    0.0000 C   0  0  0  0  0  0  0  0  0  0  0  0
    6.9648   -2.1382    0.0000 O   0  0  0  0  0  0  0  0  0  0  0  0
    6.3674   -2.7041    0.0000 C   0  0  0  0  0  0  0  0  0  0  0  0
    5.8407   -1.4857    0.0000 C   0  0  0  0  0  0  0  0  0  0  0  0
    6.6503   -1.4071    0.0000 C   0  0  0  0  0  0  0  0  0  0  0  0
    2.8378   -4.7323    0.0000 C   0  0  0  0  0  0  0  0  0  0  0  0
    2.1303   -2.7041    0.0000 O   0  0  0  0  0  0  0  0  0  0  0  0
    1.4228   -3.9304    0.0000 C   0  0  0  0  0  0  0  0  0  0  0  0
    5.6598   -3.9304    0.0000 C   0  0  0  0  0  0  0  0  0  0  0  0
    2.1303   -5.1568    0.0000 C   0  0  0  0  0  0  0  0  0  0  0  0
    1.4228   -4.7323    0.0000 C   0  0  0  0  0  0  0  0  0  0  0  0
    7.0669   -0.7154    0.0000 C   0  0  0  0  0  0  0  0  0  0  0  0
    2.8378   -2.2797    0.0000 C   0  0  0  0  0  0  0  0  0  0  0  0
    4.2449   -4.7323    0.0000 O   0  0  0  0  0  0  0  0  0  0  0  0
    6.3674   -3.5059    0.0000 C   0  0  0  0  0  0  0  0  0  0  0  0
    6.6424    0.0000    0.0000 C   0  0  0  0  0  0  0  0  0  0  0  0
    2.1303   -5.9664    0.0000 O   0  0  0  0  0  0  0  0  0  0  0  0
    0.7075   -5.1646    0.0000 O   0  0  0  0  0  0  0  0  0  0  0  0
    7.8609   -0.7075    0.0000 C   0  0  0  0  0  0  0  0  0  0  0  0
    0.0000   -4.7401    0.0000 C   0  0  0  0  0  0  0  0  0  0  0  0
    1.4228   -6.3752    0.0000 C   0  0  0  0  0  0  0  0  0  0  0  0
  1  4  2  0
  1  5  1  0
  1  7  1  0
  2  4  1  0
  2 22  2  0
  3  2  1  1
  3  8  1  0
  3  6  1  0
  4 17  1  0
  5 11  2  0
  5 12  1  0
  6 14  2  0
  6  9  1  0
  7  8  1  0
  8 21  1  1
  9 15  1  0
  9 16  2  0
 10 11  1  0
 10 13  1  0
 11 23  1  0
 12 13  1  0
 13 20  1  6
 14 18  1  0
 15 21  1  0
 16 19  1  0
 17 23  2  0
 18 25  1  0
 18 19  2  0
 19 26  1  0
 20 24  2  0
 20 27  1  0
 25 29  1  0
 26 28  1  0
M  END
>  <Formula>  (540) 
C23H22O6

>  <FW>  (540) 
394.4172

>  <DSSTox_CID>  (540) 
1248

>  <NR-AR>  (540) 
0

>  <NR-AR-LBD>  (540) 
0

>  <NR-ER-LBD>  (540) 
0

>  <SR-ATAD5>  (540) 
0

>  <SR-p53>  (540) 
1

$$$$
NCGC00165957-04
     RDKit          2D

 38 39  0  0  0  0  0  0  0  0999 V2000
    6.3413   -3.3128    0.0000 C   0  0  0  0  0  0  0  0  0  0  0  0
    5.6302   -2.8945    0.0000 C   0  0  0  0  0  0  0  0  0  0  0  0
    4.9274   -3.3128    0.0000 O   0  0  0  0  0  0  0  0  0  0  0  0
    4.2163   -2.0831    0.0000 O   0  0  0  0  0  0  0  0  0  0  0  0
    7.0272   -4.5259    0.0000 N   0  0  0  0  0  0  0  0  0  0  0  0
    6.3413   -4.1243    0.0000 C   0  0  0  0  0  0  0  0  0  0  0  0
    5.6302   -4.5259    0.0000 C   0  0  0  0  0  0  0  0  0  0  0  0
    4.9274   -4.1243    0.0000 O   0  0  0  0  0  0  0  0  0  0  0  0
    4.2163   -4.5259    0.0000 C   0  0  0  0  0  0  0  0  0  0  0  0
    0.0000   -2.8945    0.0000 C   0  0  0  0  0  0  0  0  0  0  0  0
    1.4138   -2.0831    0.0000 O   0  0  0  0  0  0  0  0  0  0  0  0
    0.7027   -3.3128    0.0000 O   0  0  0  0  0  0  0  0  0  0  0  0
    1.4138   -2.8945    0.0000 C   0  0  0  0  0  0  0  0  0  0  0  0
    4.2163   -2.8945    0.0000 C   0  0  0  0  0  0  0  0  0  0  0  0
    1.4138   -4.5259    0.0000 C   0  0  0  0  0  0  0  0  0  0  0  0
    4.2498   -1.6564    0.0000 Cl  0  0  0  0  0  0  0  0  0  0  0  0
    2.0998   -0.4099    0.0000 C   0  0  0  0  0  0  0  0  0  0  0  0
    2.0998   -1.2465    0.0000 C   0  0  0  0  0  0  0  0  0  0  0  0
    2.8193    0.0000    0.0000 C   0  0  0  0  0  0  0  0  0  0  0  0
    2.8193   -1.6564    0.0000 C   0  0  0  0  0  0  0  0  0  0  0  0
    3.5303   -0.4099    0.0000 C   0  0  0  0  0  0  0  0  0  0  0  0
    3.5303   -1.2465    0.0000 C   0  0  0  0  0  0  0  0  0  0  0  0
    3.5220   -3.3128    0.0000 C   0  0  0  0  0  0  0  0  0  0  0  0
    3.5220   -4.1243    0.0000 C   0  0  0  0  0  0  0  0  0  0  0  0
    2.8193   -2.8945    0.0000 C   0  0  0  0  0  0  0  0  0  0  0  0
    2.8193   -4.5259    0.0000 N   0  0  0  0  0  0  0  0  0  0  0  0
    2.1082   -3.3128    0.0000 C   0  0  0  0  0  0  0  0  0  0  0  0
    2.1082   -4.1243    0.0000 C   0  0  0  0  0  0  0  0  0  0  0  0
    5.7557   -0.9202    0.0000 S   0  0  0  0  0  0  0  0  0  0  0  0
    5.7557   -0.0502    0.0000 O   0  0  0  0  0  0  0  0  0  0  0  0
    5.7557   -1.7736    0.0000 O   0  0  0  0  0  0  0  0  0  0  0  0
    6.6257   -0.9202    0.0000 C   0  0  0  0  0  0  0  0  0  0  0  0
    4.8856   -0.9202    0.0000 O   0  0  0  0  0  0  0  0  0  0  0  0
    7.0607   -1.6564    0.0000 C   0  0  0  0  0  0  0  0  0  0  0  0
    7.0607   -0.1673    0.0000 C   0  0  0  0  0  0  0  0  0  0  0  0
    7.9307   -0.1673    0.0000 C   0  0  0  0  0  0  0  0  0  0  0  0
    7.9307   -1.6564    0.0000 C   0  0  0  0  0  0  0  0  0  0  0  0
    8.3658   -0.9202    0.0000 C   0  0  0  0  0  0  0  0  0  0  0  0
  1  2  1  0
  2  3  1  0
  3 14  1  0
  4 14  2  0
  5  6  1  0
  6  7  1  0
  7  8  1  0
  8  9  1  0
  9 24  1  0
 10 12  1  0
 11 13  2  0
 12 13  1  0
 13 27  1  0
 14 23  1  0
 15 28  1  0
 16 22  1  0
 17 18  2  0
 17 19  1  0
 18 20  1  0
 19 21  2  0
 20 22  2  0
 20 25  1  0
 21 22  1  0
 23 24  2  0
 23 25  1  0
 24 26  1  0
 25 27  1  0
 26 28  1  0
 27 28  2  0
 29 30  2  0
 29 31  2  0
 29 32  1  0
 29 33  1  0
 32 34  2  0
 32 35  1  0
 34 37  1  0
 35 36  2  0
 36 38  1  0
 37 38  2  0
M  END
>  <Formula>  (541) 
C26H31ClN2O8S

>  <FW>  (541) 
567.0509 (408.8759+158.1750)

>  <DSSTox_CID>  (541) 
23909

>  <NR-AR>  (541) 
0

>  <NR-AR-LBD>  (541) 
1

>  <NR-ER>  (541) 
0

>  <NR-PPAR-gamma>  (541) 
1

>  <SR-ATAD5>  (541) 
0

>  <SR-p53>  (541) 
1

$$$$
NCGC00167481-01
     RDKit          2D

 59 64  0  0  1  0  0  0  0  0999 V2000
    6.0630   -1.3942    0.0000 Cl  0  0  0  0  0  0  0  0  0  0  0  0
    0.0000   -5.3339    0.0000 C   0  0  0  0  0  0  0  0  0  0  0  0
    0.7163   -4.9245    0.0000 O   0  0  0  0  0  0  0  0  0  0  0  0
    1.4198   -5.3339    0.0000 C   0  0  0  0  0  0  0  0  0  0  0  0
    1.4198   -6.1525    0.0000 O   0  0  0  0  0  0  0  0  0  0  0  0
    2.1361   -4.9245    0.0000 C   0  0  0  0  0  0  0  0  0  0  0  0
    2.1361   -4.0932    0.0000 C   0  0  0  0  0  0  0  0  0  0  0  0
    1.4198   -3.6838    0.0000 C   0  0  0  0  0  0  0  0  0  0  0  0
    1.4198   -2.8652    0.0000 C   0  0  0  0  0  0  0  0  0  0  0  0
    0.7163   -2.4559    0.0000 C   0  0  0  0  0  0  0  0  0  0  0  0
    0.0000   -2.8652    0.0000 O   0  0  0  0  0  0  0  0  0  0  0  0
    0.7163   -1.6373    0.0000 C   0  0  0  0  0  0  0  0  0  0  0  0
    0.0000   -1.2279    0.0000 C   0  0  0  0  0  0  0  0  0  0  0  0
    0.0000   -0.4093    0.0000 C   0  0  0  0  0  0  0  0  0  0  0  0
    0.7163    0.0000    0.0000 C   0  0  0  0  0  0  0  0  0  0  0  0
    1.4198   -0.4093    0.0000 C   0  0  0  0  0  0  0  0  0  0  0  0
    2.1361    0.0000    0.0000 O   0  0  0  0  0  0  0  0  0  0  0  0
    1.4198   -1.2279    0.0000 C   0  0  0  0  0  0  0  0  0  0  0  0
    2.1361   -1.6373    0.0000 C   0  0  0  0  0  0  0  0  0  0  0  0
    2.8396   -1.2279    0.0000 O   0  0  0  0  0  0  0  0  0  0  0  0
    2.1361   -2.4559    0.0000 C   0  0  0  0  0  0  0  0  0  0  0  0
    2.8396   -2.8652    0.0000 C   0  0  0  0  0  0  0  0  0  0  0  0
    3.5559   -2.4559    0.0000 O   0  0  0  0  0  0  0  0  0  0  0  0
    2.8396   -3.6838    0.0000 C   0  0  0  0  0  0  0  0  0  0  0  0
    3.5559   -4.0932    0.0000 C   0  0  0  0  0  0  0  0  0  0  0  0
    3.5559   -4.9245    0.0000 C   0  0  0  0  0  0  0  0  0  0  0  0
    2.8396   -5.3339    0.0000 C   0  0  0  0  0  0  0  0  0  0  0  0
    2.3152   -5.9606    0.0000 O   0  0  0  0  0  0  0  0  0  0  0  0
    3.3640   -5.9606    0.0000 C   0  0  0  0  0  0  0  0  0  0  0  0
    3.0954   -6.7281    0.0000 C   0  0  0  0  0  0  0  0  0  0  0  0
    4.2595   -3.6838    0.0000 O   0  0  0  0  0  0  0  0  0  0  0  0
    4.9757   -4.0932    0.0000 C   0  0  0  0  0  0  0  0  0  0  0  0
    5.6792   -3.6838    0.0000 O   0  0  0  0  0  0  0  0  0  0  0  0
    6.3955   -4.0932    0.0000 C   0  0  0  0  0  0  0  0  0  0  0  0
    7.1118   -3.6838    0.0000 C   0  0  0  0  0  0  0  0  0  0  0  0
    6.3955   -4.9245    0.0000 C   0  0  0  0  0  0  0  0  0  0  0  0
    7.1118   -5.3339    0.0000 O   0  0  0  0  0  0  0  0  0  0  0  0
    7.8153   -4.9245    0.0000 C   0  0  0  0  0  0  0  0  0  0  0  0
    7.8153   -4.0932    0.0000 C   0  0  0  0  0  0  0  0  0  0  0  0
    8.5317   -3.6838    0.0000 C   0  0  0  0  0  0  0  0  0  0  0  0
    8.5317   -2.8652    0.0000 O   0  0  0  0  0  0  0  0  0  0  0  0
    9.2352   -4.0932    0.0000 C   0  0  0  0  0  0  0  0  0  0  0  0
    9.9515   -3.6838    0.0000 O   0  0  0  0  0  0  0  0  0  0  0  0
   10.6550   -4.0932    0.0000 C   0  0  0  0  0  0  0  0  0  0  0  0
   11.3713   -3.6838    0.0000 C   0  0  0  0  0  0  0  0  0  0  0  0
   12.0748   -4.0932    0.0000 C   0  0  0  0  0  0  0  0  0  0  0  0
   12.0748   -4.9245    0.0000 C   0  0  0  0  0  0  0  0  0  0  0  0
   12.7911   -5.3339    0.0000 O   0  0  0  0  0  0  0  0  0  0  0  0
   11.3713   -5.3339    0.0000 C   0  0  0  0  0  0  0  0  0  0  0  0
   11.3713   -6.1525    0.0000 C   0  0  0  0  0  0  0  0  0  0  0  0
   10.6550   -4.9245    0.0000 O   0  0  0  0  0  0  0  0  0  0  0  0
    9.2352   -4.9245    0.0000 C   0  0  0  0  0  0  0  0  0  0  0  0
    9.9515   -5.3339    0.0000 C   0  0  0  0  0  0  0  0  0  0  0  0
    8.5317   -5.3339    0.0000 O   0  0  0  0  0  0  0  0  0  0  0  0
    5.6792   -5.3339    0.0000 C   0  0  0  0  0  0  0  0  0  0  0  0
    4.9757   -4.9245    0.0000 C   0  0  0  0  0  0  0  0  0  0  0  0
    5.6792   -6.1525    0.0000 N   0  0  0  0  0  0  0  0  0  0  0  0
    6.3955   -6.5618    0.0000 C   0  0  0  0  0  0  0  0  0  0  0  0
    4.9757   -6.5618    0.0000 C   0  0  0  0  0  0  0  0  0  0  0  0
  2  3  1  0
  3  4  1  0
  4  5  2  0
  6  4  1  6
  6  7  1  0
  6 27  1  0
  7  8  1  0
  7 24  2  0
  8  9  2  0
  9 10  1  0
  9 21  1  0
 10 11  2  0
 10 12  1  0
 12 13  2  0
 12 18  1  0
 13 14  1  0
 14 15  2  0
 15 16  1  0
 16 17  1  0
 16 18  2  0
 18 19  1  0
 19 20  2  0
 19 21  1  0
 21 22  2  0
 22 23  1  0
 22 24  1  0
 24 25  1  0
 25 26  1  0
 25 31  1  1
 26 27  1  0
 27 28  1  1
 27 29  1  0
 29 30  1  0
 32 31  1  6
 32 33  1  0
 32 56  1  0
 33 34  1  0
 34 35  1  1
 34 36  1  0
 36 37  1  1
 36 55  1  0
 38 37  1  1
 38 39  1  0
 38 54  1  0
 39 40  1  0
 40 41  1  6
 40 42  1  0
 42 43  1  6
 42 52  1  0
 44 43  1  1
 44 45  1  0
 44 51  1  0
 45 46  1  0
 46 47  1  0
 47 48  2  0
 47 49  1  0
 49 50  1  6
 49 51  1  0
 52 53  1  6
 52 54  1  0
 55 56  1  0
 55 57  1  1
 57 58  1  0
 57 59  1  0
M  END
>  <Formula>  (542) 
C42H54ClNO15

>  <FW>  (542) 
848.3289 (36.4609+811.8679)

>  <DSSTox_CID>  (542) 
26658

>  <NR-Aromatase>  (542) 
1

>  <NR-AR>  (542) 
0

>  <NR-AR-LBD>  (542) 
1

>  <NR-ER>  (542) 
1

>  <SR-MMP>  (542) 
1

>  <SR-p53>  (542) 
1

$$$$
NCGC00160352-01
     RDKit          2D

 21 23  0  0  0  0  0  0  0  0999 V2000
    2.5973    0.0000    0.0000 N   0  0  0  0  0  0  0  0  0  0  0  0
    3.1816   -0.5843    0.0000 C   0  0  0  0  0  0  0  0  0  0  0  0
    3.9890   -0.4143    0.0000 O   0  0  0  0  0  0  0  0  0  0  0  0
    2.9266   -1.3703    0.0000 N   0  0  0  0  0  0  0  0  0  0  0  0
    3.4100   -2.0396    0.0000 C   0  0  0  0  0  0  0  0  0  0  0  0
    2.9266   -2.7036    0.0000 C   0  0  0  0  0  0  0  0  0  0  0  0
    3.1816   -3.4897    0.0000 C   0  0  0  0  0  0  0  0  0  0  0  0
    2.5973   -4.0739    0.0000 O   0  0  0  0  0  0  0  0  0  0  0  0
    3.9783   -3.7021    0.0000 C   0  0  0  0  0  0  0  0  0  0  0  0
    4.6210   -3.1816    0.0000 C   0  0  0  0  0  0  0  0  0  0  0  0
    5.3115   -3.6331    0.0000 C   0  0  0  0  0  0  0  0  0  0  0  0
    5.0990   -4.4298    0.0000 C   0  0  0  0  0  0  0  0  0  0  0  0
    4.2758   -4.4723    0.0000 S   0  0  0  0  0  0  0  0  0  0  0  0
    2.1405   -2.4486    0.0000 C   0  0  0  0  0  0  0  0  0  0  0  0
    1.4288   -2.8629    0.0000 C   0  0  0  0  0  0  0  0  0  0  0  0
    0.7117   -2.4486    0.0000 C   0  0  0  0  0  0  0  0  0  0  0  0
    0.7117   -1.6253    0.0000 C   0  0  0  0  0  0  0  0  0  0  0  0
    1.4288   -1.2110    0.0000 C   0  0  0  0  0  0  0  0  0  0  0  0
    2.1405   -1.6253    0.0000 C   0  0  0  0  0  0  0  0  0  0  0  0
    0.0000   -2.8629    0.0000 Cl  0  0  0  0  0  0  0  0  0  0  0  0
    4.2386   -2.0396    0.0000 O   0  0  0  0  0  0  0  0  0  0  0  0
  1  2  1  0
  2  3  2  0
  2  4  1  0
  4  5  1  0
  4 19  1  0
  5  6  2  0
  5 21  1  0
  6  7  1  0
  6 14  1  0
  7  8  2  0
  7  9  1  0
  9 10  2  0
  9 13  1  0
 10 11  1  0
 11 12  2  0
 12 13  1  0
 14 15  1  0
 14 19  2  0
 15 16  2  0
 16 17  1  0
 16 20  1  0
 17 18  2  0
 18 19  1  0
M  END
>  <Formula>  (543) 
C14H9ClN2O3S

>  <FW>  (543) 
320.7509

>  <DSSTox_CID>  (543) 
26104

>  <NR-AR>  (543) 
0

>  <NR-ER-LBD>  (543) 
0

>  <NR-AhR>  (543) 
1

>  <SR-MMP>  (543) 
1

>  <SR-p53>  (543) 
1

$$$$
NCGC00260151-01
     RDKit          2D

 34 38  0  0  0  0  0  0  0  0999 V2000
    5.6475    0.0000    0.0000 O   0  0  0  0  0  0  0  0  0  0  0  0
    5.9027   -0.7825    0.0000 C   0  0  0  0  0  0  0  0  0  0  0  0
    6.7107   -0.9611    0.0000 C   0  0  0  0  0  0  0  0  0  0  0  0
    6.9659   -1.7436    0.0000 C   0  0  0  0  0  0  0  0  0  0  0  0
    6.4130   -2.3560    0.0000 C   0  0  0  0  0  0  0  0  0  0  0  0
    5.6050   -2.1859    0.0000 C   0  0  0  0  0  0  0  0  0  0  0  0
    5.3499   -1.3949    0.0000 C   0  0  0  0  0  0  0  0  0  0  0  0
    6.6682   -3.1384    0.0000 C   0  0  0  0  0  0  0  0  0  0  0  0
    7.4507   -3.3936    0.0000 S   0  0  0  0  0  0  0  0  0  0  0  0
    7.4507   -4.2187    0.0000 C   0  0  0  0  0  0  0  0  0  0  0  0
    8.0630   -4.7715    0.0000 C   0  0  0  0  0  0  0  0  0  0  0  0
    7.8929   -5.5710    0.0000 C   0  0  0  0  0  0  0  0  0  0  0  0
    8.5053   -6.1238    0.0000 O   0  0  0  0  0  0  0  0  0  0  0  0
    7.1104   -5.8261    0.0000 C   0  0  0  0  0  0  0  0  0  0  0  0
    6.4981   -5.2818    0.0000 C   0  0  0  0  0  0  0  0  0  0  0  0
    6.6682   -4.4738    0.0000 C   0  0  0  0  0  0  0  0  0  0  0  0
    6.1833   -3.8019    0.0000 C   0  0  0  0  0  0  0  0  0  0  0  0
    5.3583   -3.8019    0.0000 C   0  0  0  0  0  0  0  0  0  0  0  0
    4.9501   -3.0874    0.0000 O   0  0  0  0  0  0  0  0  0  0  0  0
    4.9501   -4.5163    0.0000 C   0  0  0  0  0  0  0  0  0  0  0  0
    5.3583   -5.2308    0.0000 C   0  0  0  0  0  0  0  0  0  0  0  0
    4.9501   -5.9452    0.0000 C   0  0  0  0  0  0  0  0  0  0  0  0
    4.1251   -5.9452    0.0000 C   0  0  0  0  0  0  0  0  0  0  0  0
    3.7083   -6.6597    0.0000 O   0  0  0  0  0  0  0  0  0  0  0  0
    2.8833   -6.6597    0.0000 C   0  0  0  0  0  0  0  0  0  0  0  0
    2.4751   -7.3741    0.0000 C   0  0  0  0  0  0  0  0  0  0  0  0
    1.6501   -7.3741    0.0000 N   0  0  0  0  0  0  0  0  0  0  0  0
    1.2333   -8.0886    0.0000 C   0  0  0  0  0  0  0  0  0  0  0  0
    0.4083   -8.0886    0.0000 C   0  0  0  0  0  0  0  0  0  0  0  0
    0.0000   -7.3741    0.0000 C   0  0  0  0  0  0  0  0  0  0  0  0
    0.4083   -6.6597    0.0000 C   0  0  0  0  0  0  0  0  0  0  0  0
    1.2333   -6.6597    0.0000 C   0  0  0  0  0  0  0  0  0  0  0  0
    3.7083   -5.2308    0.0000 C   0  0  0  0  0  0  0  0  0  0  0  0
    4.1251   -4.5163    0.0000 C   0  0  0  0  0  0  0  0  0  0  0  0
  1  2  1  0
  2  3  2  0
  2  7  1  0
  3  4  1  0
  4  5  2  0
  5  6  1  0
  5  8  1  0
  6  7  2  0
  8  9  1  0
  8 17  2  0
  9 10  1  0
 10 11  2  0
 10 16  1  0
 11 12  1  0
 12 13  1  0
 12 14  2  0
 14 15  1  0
 15 16  2  0
 16 17  1  0
 17 18  1  0
 18 19  2  0
 18 20  1  0
 20 21  2  0
 20 34  1  0
 21 22  1  0
 22 23  2  0
 23 24  1  0
 23 33  1  0
 24 25  1  0
 25 26  1  0
 26 27  1  0
 27 28  1  0
 27 32  1  0
 28 29  1  0
 29 30  1  0
 30 31  1  0
 31 32  1  0
 33 34  2  0
M  END
>  <Formula>  (544) 
C28H27NO4S

>  <FW>  (544) 
473.5833

>  <DSSTox_CID>  (544) 
3550

>  <NR-Aromatase>  (544) 
1

>  <NR-AR>  (544) 
0

>  <SR-ARE>  (544) 
0

>  <SR-ATAD5>  (544) 
0

>  <SR-HSE>  (544) 
1

>  <SR-MMP>  (544) 
1

>  <SR-p53>  (544) 
1

$$$$
NCGC00163543-01
     RDKit          2D

 40 43  0  0  1  0  0  0  0  0999 V2000
    2.0995   -6.7060    0.0000 O   0  0  0  0  0  0  0  0  0  0  0  0
    2.3816   -5.9304    0.0000 C   0  0  0  0  0  0  0  0  0  0  0  0
    1.8567   -5.3115    0.0000 C   0  0  0  0  0  0  0  0  0  0  0  0
    1.0420   -5.4447    0.0000 O   0  0  0  0  0  0  0  0  0  0  0  0
    2.1387   -4.5281    0.0000 C   0  0  0  0  0  0  0  0  0  0  0  0
    1.3318   -4.3871    0.0000 O   0  0  0  0  0  0  0  0  0  0  0  0
    2.1387   -3.6977    0.0000 C   0  0  0  0  0  0  0  0  0  0  0  0
    2.8594   -3.2982    0.0000 C   0  0  0  0  0  0  0  0  0  0  0  0
    2.8594   -2.4677    0.0000 O   0  0  0  0  0  0  0  0  0  0  0  0
    2.1387   -2.0525    0.0000 C   0  0  0  0  0  0  0  0  0  0  0  0
    1.4258   -2.4677    0.0000 C   0  0  0  0  0  0  0  0  0  0  0  0
    0.7129   -2.0525    0.0000 C   0  0  0  0  0  0  0  0  0  0  0  0
    0.0000   -2.4677    0.0000 N   0  0  0  0  0  0  0  0  0  0  0  0
    0.7129   -1.2300    0.0000 C   0  0  0  0  0  0  0  0  0  0  0  0
    0.0000   -0.8226    0.0000 O   0  0  0  0  0  0  0  0  0  0  0  0
    1.4258   -0.8226    0.0000 C   0  0  0  0  0  0  0  0  0  0  0  0
    1.4258    0.0000    0.0000 C   0  0  0  0  0  0  0  0  0  0  0  0
    2.1387   -1.2300    0.0000 O   0  0  0  0  0  0  0  0  0  0  0  0
    3.5724   -3.6977    0.0000 C   0  0  0  0  0  0  0  0  0  0  0  0
    4.2774   -3.2982    0.0000 C   0  0  0  0  0  0  0  0  0  0  0  0
    4.2774   -2.4677    0.0000 O   0  0  0  0  0  0  0  0  0  0  0  0
    4.9903   -3.6977    0.0000 C   0  0  0  0  0  0  0  0  0  0  0  0
    5.7032   -3.2982    0.0000 C   0  0  0  0  0  0  0  0  0  0  0  0
    5.7032   -2.4677    0.0000 O   0  0  0  0  0  0  0  0  0  0  0  0
    6.4161   -3.6977    0.0000 C   0  0  0  0  0  0  0  0  0  0  0  0
    7.1291   -3.2982    0.0000 C   0  0  0  0  0  0  0  0  0  0  0  0
    7.1291   -2.4677    0.0000 O   0  0  0  0  0  0  0  0  0  0  0  0
    7.8341   -2.0525    0.0000 C   0  0  0  0  0  0  0  0  0  0  0  0
    7.8341   -3.6977    0.0000 C   0  0  0  0  0  0  0  0  0  0  0  0
    7.8341   -4.5281    0.0000 C   0  0  0  0  0  0  0  0  0  0  0  0
    7.1291   -4.9433    0.0000 C   0  0  0  0  0  0  0  0  0  0  0  0
    6.4161   -4.5281    0.0000 C   0  0  0  0  0  0  0  0  0  0  0  0
    5.7032   -4.9433    0.0000 C   0  0  0  0  0  0  0  0  0  0  0  0
    5.7032   -5.7659    0.0000 O   0  0  0  0  0  0  0  0  0  0  0  0
    4.9903   -4.5281    0.0000 C   0  0  0  0  0  0  0  0  0  0  0  0
    4.2774   -4.9433    0.0000 C   0  0  0  0  0  0  0  0  0  0  0  0
    4.2774   -5.7659    0.0000 O   0  0  0  0  0  0  0  0  0  0  0  0
    3.5724   -4.5281    0.0000 C   0  0  0  0  0  0  0  0  0  0  0  0
    2.8594   -4.9433    0.0000 C   0  0  0  0  0  0  0  0  0  0  0  0
    5.9696   -0.3682    0.0000 Cl  0  0  0  0  0  0  0  0  0  0  0  0
  1  2  1  0
  2  3  1  0
  3  4  2  0
  5  3  1  0
  5  6  1  6
  5  7  1  0
  5 39  1  0
  7  8  1  0
  8  9  1  6
  8 19  1  0
 10  9  1  1
 10 11  1  0
 10 18  1  0
 11 12  1  0
 12 13  1  6
 12 14  1  0
 14 15  1  6
 14 16  1  0
 16 17  1  6
 16 18  1  0
 19 20  1  0
 19 38  2  0
 20 21  1  0
 20 22  2  0
 22 23  1  0
 22 35  1  0
 23 24  2  0
 23 25  1  0
 25 26  2  0
 25 32  1  0
 26 27  1  0
 26 29  1  0
 27 28  1  0
 29 30  2  0
 30 31  1  0
 31 32  2  0
 32 33  1  0
 33 34  2  0
 33 35  1  0
 35 36  2  0
 36 37  1  0
 36 38  1  0
 38 39  1  0
M  END
>  <Formula>  (545) 
C27H30ClNO11

>  <FW>  (545) 
579.9802 (543.5193+36.4609)

>  <DSSTox_CID>  (545) 
10636

>  <NR-AR>  (545) 
0

>  <NR-AR-LBD>  (545) 
1

>  <NR-ER-LBD>  (545) 
1

>  <SR-ATAD5>  (545) 
1

>  <SR-p53>  (545) 
1

$$$$
NCGC00181127-01
     RDKit          2D

 64 71  0  0  1  0  0  0  0  0999 V2000
    3.6182   -1.7507    0.0000 C   0  0  0  0  0  0  0  0  0  0  0  0
    2.8829   -1.3539    0.0000 C   0  0  0  0  0  0  0  0  0  0  0  0
    2.8829   -0.5019    0.0000 C   0  0  0  0  0  0  0  0  0  0  0  0
    4.3185   -1.3539    0.0000 C   0  0  0  0  0  0  0  0  0  0  0  0
    3.5832   -0.1051    0.0000 C   0  0  0  0  0  0  0  0  0  0  0  0
    4.3185   -0.5019    0.0000 C   0  0  0  0  0  0  0  0  0  0  0  0
    4.9488   -1.8558    0.0000 C   0  0  0  0  0  0  0  0  0  0  0  0
    5.7541   -1.6691    0.0000 C   0  0  0  0  0  0  0  0  0  0  0  0
    4.9721    0.0000    0.0000 N   0  0  0  0  0  0  0  0  0  0  0  0
    5.7541   -0.1868    0.0000 C   0  0  0  0  0  0  0  0  0  0  0  0
    6.1160   -0.9220    0.0000 C   0  0  0  0  0  0  0  0  0  0  0  0
    5.2173   -0.8871    0.0000 C   0  0  0  0  0  0  0  0  0  0  0  0
    2.1359   -1.7507    0.0000 N   0  0  0  0  0  0  0  0  0  0  0  0
    1.4356   -0.5019    0.0000 C   0  0  0  0  0  0  0  0  0  0  0  0
    1.4356   -1.3539    0.0000 C   0  0  0  0  0  0  0  0  0  0  0  0
    0.7003   -0.1051    0.0000 C   0  0  0  0  0  0  0  0  0  0  0  0
    0.7003   -1.7507    0.0000 C   0  0  0  0  0  0  0  0  0  0  0  0
    0.0000   -0.5019    0.0000 C   0  0  0  0  0  0  0  0  0  0  0  0
    0.0000   -1.3539    0.0000 C   0  0  0  0  0  0  0  0  0  0  0  0
    6.8396   -0.5369    0.0000 O   0  0  0  0  0  0  0  0  0  0  0  0
    6.8046   -1.3539    0.0000 C   0  0  0  0  0  0  0  0  0  0  0  0
    7.5516   -1.0037    0.0000 C   0  0  0  0  0  0  0  0  0  0  0  0
    7.8200   -3.0930    0.0000 C   0  0  0  0  0  0  0  0  0  0  0  0
    8.5203   -4.3419    0.0000 C   0  0  0  0  0  0  0  0  0  0  0  0
    7.8200   -3.9100    0.0000 C   0  0  0  0  0  0  0  0  0  0  0  0
    9.2206   -3.0930    0.0000 C   0  0  0  0  0  0  0  0  0  0  0  0
    7.0847   -4.2952    0.0000 N   0  0  0  0  0  0  0  0  0  0  0  0
    8.5203   -2.6728    0.0000 C   0  0  0  0  0  0  0  0  0  0  0  0
    6.3844   -3.9100    0.0000 C   0  0  0  0  0  0  0  0  0  0  0  0
    9.2206   -3.9100    0.0000 C   0  0  0  0  0  0  0  0  0  0  0  0
    6.3844   -3.0930    0.0000 C   0  0  0  0  0  0  0  0  0  0  0  0
    4.9488   -3.0930    0.0000 C   0  0  0  0  0  0  0  0  0  0  0  0
    5.6374   -4.2952    0.0000 C   0  0  0  0  0  0  0  0  0  0  0  0
    5.6374   -2.6728    0.0000 C   0  0  0  0  0  0  0  0  0  0  0  0
    8.5203   -1.8558    0.0000 N   0  0  0  0  0  0  0  0  0  0  0  0
    3.4198   -2.4394    0.0000 C   0  0  0  0  0  0  0  0  0  0  0  0
    8.8355   -4.8788    0.0000 C   0  0  0  0  0  0  0  0  0  0  0  0
    4.9488   -3.9100    0.0000 C   0  0  0  0  0  0  0  0  0  0  0  0
    7.0847   -2.6728    0.0000 C   0  0  0  0  0  0  0  0  0  0  0  0
   10.1543   -4.7387    0.0000 O   0  0  0  0  0  0  0  0  0  0  0  0
    9.9560   -2.6728    0.0000 C   0  0  0  0  0  0  0  0  0  0  0  0
   11.1698   -4.7387    0.0000 C   0  0  0  0  0  0  0  0  0  0  0  0
    7.0847   -1.8558    0.0000 C   0  0  0  0  0  0  0  0  0  0  0  0
    8.2869   -5.1238    0.0000 O   0  0  0  0  0  0  0  0  0  0  0  0
    9.9560   -1.8558    0.0000 C   0  0  0  0  0  0  0  0  0  0  0  0
    9.6992   -4.8788    0.0000 O   0  0  0  0  0  0  0  0  0  0  0  0
    2.6378   -2.6728    0.0000 O   0  0  0  0  0  0  0  0  0  0  0  0
   11.6717   -3.8400    0.0000 O   0  0  0  0  0  0  0  0  0  0  0  0
    9.9560   -3.5715    0.0000 C   0  0  0  0  0  0  0  0  0  0  0  0
    7.0380   -5.1589    0.0000 C   0  0  0  0  0  0  0  0  0  0  0  0
    9.2206   -1.4356    0.0000 C   0  0  0  0  0  0  0  0  0  0  0  0
    8.8355   -5.6258    0.0000 O   0  0  0  0  0  0  0  0  0  0  0  0
    3.9684   -2.9529    0.0000 O   0  0  0  0  0  0  0  0  0  0  0  0
    4.2018   -4.2952    0.0000 O   0  0  0  0  0  0  0  0  0  0  0  0
   11.5900   -5.5090    0.0000 C   0  0  0  0  0  0  0  0  0  0  0  0
    3.5365   -3.6766    0.0000 C   0  0  0  0  0  0  0  0  0  0  0  0
    9.5708   -6.0109    0.0000 C   0  0  0  0  0  0  0  0  0  0  0  0
    4.2018   -5.1589    0.0000 C   0  0  0  0  0  0  0  0  0  0  0  0
   10.7029   -3.2097    0.0000 C   0  0  0  0  0  0  0  0  0  0  0  0
    1.5290   -4.0384    0.0000 S   0  0  0  0  0  0  0  0  0  0  0  0
    2.3577   -4.0384    0.0000 O   0  0  0  0  0  0  0  0  0  0  0  0
    0.7120   -4.0384    0.0000 O   0  0  0  0  0  0  0  0  0  0  0  0
    1.5290   -4.8671    0.0000 O   0  0  0  0  0  0  0  0  0  0  0  0
    1.5290   -3.2214    0.0000 O   0  0  0  0  0  0  0  0  0  0  0  0
  1  2  1  0
  1  4  1  0
  1 32  1  0
  1 36  1  1
  2  3  2  0
  2 13  1  0
  3  5  1  0
  3 14  1  0
  7  4  1  1
  5  6  1  0
  9  6  1  1
  7  8  1  0
  7 12  1  0
  8 11  1  0
  9 10  1  0
  9 12  1  0
 10 11  1  0
 11 20  1  1
 11 21  1  0
 13 15  1  0
 14 16  2  0
 14 15  1  0
 15 17  2  0
 16 18  1  0
 17 19  1  0
 18 19  2  0
 21 22  1  0
 23 25  1  0
 23 28  1  0
 23 39  1  1
 23 31  1  0
 24 25  1  0
 24 37  1  0
 24 44  1  1
 24 30  1  0
 25 27  1  6
 26 28  1  0
 26 30  1  0
 26 41  1  0
 26 49  1  6
 27 29  1  0
 27 50  1  0
 28 35  1  1
 29 33  1  0
 29 31  2  0
 30 40  1  1
 31 34  1  0
 32 34  2  0
 32 38  1  0
 33 38  2  0
 35 51  1  0
 35 43  1  0
 36 47  2  0
 36 53  1  0
 37 46  2  0
 37 52  1  0
 38 54  1  0
 39 43  1  0
 40 42  1  0
 41 45  2  0
 42 48  2  0
 42 55  1  0
 45 51  1  0
 49 59  1  0
 52 57  1  0
 53 56  1  0
 54 58  1  0
 60 61  2  0
 60 62  2  0
 60 63  1  0
 60 64  1  0
M  END
>  <Formula>  (546) 
C46H60N4O13S

>  <FW>  (546) 
909.0526 (810.9741+98.0785)

>  <DSSTox_CID>  (546) 
27831

>  <NR-AR>  (546) 
0

>  <NR-AhR>  (546) 
0

>  <SR-ATAD5>  (546) 
1

>  <SR-MMP>  (546) 
1

>  <SR-p53>  (546) 
1

$$$$
NCGC00167969-01
     RDKit          2D

 29 33  0  0  1  0  0  0  0  0999 V2000
    0.7090   -0.4125    0.0000 N   0  0  0  0  0  0  0  0  0  0  0  0
    1.4308    0.0000    0.0000 O   0  0  0  0  0  0  0  0  0  0  0  0
    0.0000    0.0000    0.0000 O   0  0  0  0  0  0  0  0  0  0  0  0
    5.9551   -4.4147    0.0000 C   0  0  0  0  0  0  0  0  0  0  0  0
    6.4449   -3.7574    0.0000 O   0  0  0  0  0  0  0  0  0  0  0  0
    6.1098   -2.9905    0.0000 C   0  0  0  0  0  0  0  0  0  0  0  0
    5.1302   -4.3310    0.0000 C   0  0  0  0  0  0  0  0  0  0  0  0
    4.8014   -3.5769    0.0000 C   0  0  0  0  0  0  0  0  0  0  0  0
    5.2784   -2.9002    0.0000 C   0  0  0  0  0  0  0  0  0  0  0  0
    4.9432   -2.1462    0.0000 C   0  0  0  0  0  0  0  0  0  0  0  0
    3.9765   -3.4802    0.0000 C   0  0  0  0  0  0  0  0  0  0  0  0
    3.6414   -2.7326    0.0000 C   0  0  0  0  0  0  0  0  0  0  0  0
    4.1248   -2.0688    0.0000 N   0  0  0  0  0  0  0  0  0  0  0  0
    3.6414   -1.3986    0.0000 C   0  0  0  0  0  0  0  0  0  0  0  0
    2.8615   -1.6499    0.0000 C   0  0  0  0  0  0  0  0  0  0  0  0
    2.8615   -2.4749    0.0000 C   0  0  0  0  0  0  0  0  0  0  0  0
    2.1397   -2.8937    0.0000 N   0  0  0  0  0  0  0  0  0  0  0  0
    2.1397   -1.2374    0.0000 C   0  0  0  0  0  0  0  0  0  0  0  0
    1.4308   -1.6499    0.0000 C   0  0  0  0  0  0  0  0  0  0  0  0
    1.4308   -2.4749    0.0000 C   0  0  0  0  0  0  0  0  0  0  0  0
    0.7090   -2.8937    0.0000 C   0  0  0  0  0  0  0  0  0  0  0  0
    0.0000   -2.4749    0.0000 C   0  0  0  0  0  0  0  0  0  0  0  0
    0.0000   -1.6499    0.0000 C   0  0  0  0  0  0  0  0  0  0  0  0
    0.7090   -1.2374    0.0000 C   0  0  0  0  0  0  0  0  0  0  0  0
    6.2967   -5.1688    0.0000 O   0  0  0  0  0  0  0  0  0  0  0  0
    4.3890   -4.6596    0.0000 C   0  0  0  0  0  0  0  0  0  0  0  0
    5.0528   -5.1495    0.0000 O   0  0  0  0  0  0  0  0  0  0  0  0
    5.4331   -1.4759    0.0000 O   0  0  0  0  0  0  0  0  0  0  0  0
    3.7123   -4.1827    0.0000 C   0  0  0  0  0  0  0  0  0  0  0  0
  1  3  1  0
  1  2  2  0
  1 24  1  0
  4  7  1  0
  4 25  2  0
  4  5  1  0
  5  6  1  0
  6  9  1  0
  7  8  1  0
  7 26  1  0
  7 27  1  1
  8 11  1  0
  8  9  2  0
  9 10  1  0
 10 13  1  0
 10 28  2  0
 11 12  2  0
 12 13  1  0
 12 16  1  0
 13 14  1  0
 14 15  1  0
 15 18  1  0
 15 16  2  0
 16 17  1  0
 17 20  2  0
 18 19  2  0
 19 20  1  0
 19 24  1  0
 20 21  1  0
 21 22  2  0
 22 23  1  0
 23 24  2  0
 26 29  1  0
M  CHG  2   1   1   3  -1
M  END
>  <Formula>  (547) 
C20H15N3O6

>  <FW>  (547) 
393.3496

>  <DSSTox_CID>  (547) 
26752

>  <NR-AR>  (547) 
0

>  <NR-ER-LBD>  (547) 
0

>  <SR-ATAD5>  (547) 
0

>  <SR-MMP>  (547) 
1

>  <SR-p53>  (547) 
1

$$$$
NCGC00255153-01
     RDKit          2D

 35 38  0  0  0  0  0  0  0  0999 V2000
    4.9396   -1.4871    0.0000 C   0  0  0  0  0  0  0  0  0  0  0  0
    5.4091   -0.8088    0.0000 C   0  0  0  0  0  0  0  0  0  0  0  0
    4.1482   -1.2262    0.0000 C   0  0  0  0  0  0  0  0  0  0  0  0
    5.3396   -2.1915    0.0000 C   0  0  0  0  0  0  0  0  0  0  0  0
    6.2353   -0.8088    0.0000 C   0  0  0  0  0  0  0  0  0  0  0  0
    4.9396   -0.1565    0.0000 S   0  0  0  0  0  0  0  0  0  0  0  0
    4.1482   -0.4000    0.0000 C   0  0  0  0  0  0  0  0  0  0  0  0
    3.4351   -1.6349    0.0000 C   0  0  0  0  0  0  0  0  0  0  0  0
    4.9396   -2.9046    0.0000 C   0  0  0  0  0  0  0  0  0  0  0  0
    6.1657   -2.1915    0.0000 O   0  0  0  0  0  0  0  0  0  0  0  0
    6.6353   -1.5305    0.0000 C   0  0  0  0  0  0  0  0  0  0  0  0
    6.6353   -0.1130    0.0000 C   0  0  0  0  0  0  0  0  0  0  0  0
    3.4351    0.0000    0.0000 C   0  0  0  0  0  0  0  0  0  0  0  0
    2.7306   -1.2262    0.0000 C   0  0  0  0  0  0  0  0  0  0  0  0
    4.1134   -2.9046    0.0000 C   0  0  0  0  0  0  0  0  0  0  0  0
    5.3396   -3.6264    0.0000 C   0  0  0  0  0  0  0  0  0  0  0  0
    7.4615   -1.5305    0.0000 C   0  0  0  0  0  0  0  0  0  0  0  0
    7.4615   -0.1130    0.0000 C   0  0  0  0  0  0  0  0  0  0  0  0
    2.7306   -0.4000    0.0000 C   0  0  0  0  0  0  0  0  0  0  0  0
    3.6872   -3.6264    0.0000 C   0  0  0  0  0  0  0  0  0  0  0  0
    4.9396   -4.3308    0.0000 C   0  0  0  0  0  0  0  0  0  0  0  0
    7.8702   -0.8088    0.0000 C   0  0  0  0  0  0  0  0  0  0  0  0
    2.0089    0.0000    0.0000 O   0  0  0  0  0  0  0  0  0  0  0  0
    4.1134   -4.3308    0.0000 C   0  0  0  0  0  0  0  0  0  0  0  0
    8.6963   -0.8088    0.0000 O   0  0  0  0  0  0  0  0  0  0  0  0
    3.6872   -5.0352    0.0000 O   0  0  0  0  0  0  0  0  0  0  0  0
    2.8698   -5.0352    0.0000 C   0  0  0  0  0  0  0  0  0  0  0  0
    2.4610   -4.3308    0.0000 C   0  0  0  0  0  0  0  0  0  0  0  0
    1.6436   -4.3308    0.0000 N   0  0  0  0  0  0  0  0  0  0  0  0
    1.2349   -5.0352    0.0000 C   0  0  0  0  0  0  0  0  0  0  0  0
    1.2349   -3.6264    0.0000 C   0  0  0  0  0  0  0  0  0  0  0  0
    0.4087   -5.0352    0.0000 C   0  0  0  0  0  0  0  0  0  0  0  0
    0.4087   -3.6264    0.0000 C   0  0  0  0  0  0  0  0  0  0  0  0
    0.0000   -4.3308    0.0000 C   0  0  0  0  0  0  0  0  0  0  0  0
    1.2349   -1.6349    0.0000 Cl  0  0  0  0  0  0  0  0  0  0  0  0
  1  2  2  0
  1  3  1  0
  1  4  1  0
  2  5  1  0
  2  6  1  0
  3  7  2  0
  3  8  1  0
  4  9  1  0
  4 10  2  0
  5 11  2  0
  5 12  1  0
  6  7  1  0
  7 13  1  0
  8 14  2  0
  9 15  2  0
  9 16  1  0
 11 17  1  0
 12 18  2  0
 13 19  2  0
 14 19  1  0
 15 20  1  0
 16 21  2  0
 17 22  2  0
 18 22  1  0
 19 23  1  0
 20 24  2  0
 21 24  1  0
 22 25  1  0
 24 26  1  0
 26 27  1  0
 27 28  1  0
 28 29  1  0
 29 30  1  0
 29 31  1  0
 30 32  1  0
 31 33  1  0
 32 34  1  0
 33 34  1  0
M  END
>  <Formula>  (548) 
C28H28ClNO4S

>  <FW>  (548) 
510.0442 (473.5833+36.4609)

>  <DSSTox_CID>  (548) 
14181

>  <NR-Aromatase>  (548) 
1

>  <NR-AR>  (548) 
0

>  <NR-AhR>  (548) 
0

>  <SR-ARE>  (548) 
0

>  <SR-HSE>  (548) 
1

>  <SR-MMP>  (548) 
1

>  <SR-p53>  (548) 
1

$$$$
NCGC00166035-01
     RDKit          2D

 27 29  0  0  1  0  0  0  0  0999 V2000
    3.5786   -5.2720    0.0000 C   0  0  0  0  0  0  0  0  0  0  0  0
    3.5786   -4.4425    0.0000 O   0  0  0  0  0  0  0  0  0  0  0  0
    2.8588   -4.0311    0.0000 C   0  0  0  0  0  0  0  0  0  0  0  0
    2.1459   -4.4425    0.0000 C   0  0  0  0  0  0  0  0  0  0  0  0
    1.4328   -4.0311    0.0000 C   0  0  0  0  0  0  0  0  0  0  0  0
    1.4328   -3.2016    0.0000 C   0  0  0  0  0  0  0  0  0  0  0  0
    2.1459   -2.7903    0.0000 C   0  0  0  0  0  0  0  0  0  0  0  0
    2.8588   -3.2016    0.0000 C   0  0  0  0  0  0  0  0  0  0  0  0
    3.6335   -2.9000    0.0000 C   0  0  0  0  0  0  0  0  0  0  0  0
    4.0997   -3.5855    0.0000 C   0  0  0  0  0  0  0  0  0  0  0  0
    4.9087   -3.6335    0.0000 C   0  0  0  0  0  0  0  0  0  0  0  0
    5.4914   -3.0508    0.0000 C   0  0  0  0  0  0  0  0  0  0  0  0
    6.2729   -3.2839    0.0000 O   0  0  0  0  0  0  0  0  0  0  0  0
    6.8557   -2.7011    0.0000 C   0  0  0  0  0  0  0  0  0  0  0  0
    5.3612   -2.2281    0.0000 C   0  0  0  0  0  0  0  0  0  0  0  0
    6.0398   -1.7619    0.0000 O   0  0  0  0  0  0  0  0  0  0  0  0
    4.6413   -1.8099    0.0000 C   0  0  0  0  0  0  0  0  0  0  0  0
    3.8734   -2.1115    0.0000 C   0  0  0  0  0  0  0  0  0  0  0  0
    3.4072   -1.4328    0.0000 C   0  0  0  0  0  0  0  0  0  0  0  0
    3.8255   -0.7130    0.0000 N   0  0  0  0  0  0  0  0  0  0  0  0
    3.4072    0.0000    0.0000 C   0  0  0  0  0  0  0  0  0  0  0  0
    2.5983   -1.3780    0.0000 C   0  0  0  0  0  0  0  0  0  0  0  0
    2.0156   -1.9676    0.0000 C   0  0  0  0  0  0  0  0  0  0  0  0
    0.7130   -4.4425    0.0000 O   0  0  0  0  0  0  0  0  0  0  0  0
    0.0000   -4.0311    0.0000 C   0  0  0  0  0  0  0  0  0  0  0  0
    2.1459   -5.2720    0.0000 O   0  0  0  0  0  0  0  0  0  0  0  0
    1.4328   -5.6833    0.0000 C   0  0  0  0  0  0  0  0  0  0  0  0
  1  2  1  0
  2  3  1  0
  3  4  2  0
  3  8  1  0
  4  5  1  0
  4 26  1  0
  5  6  2  0
  5 24  1  0
  6  7  1  0
  7  8  2  0
  7 23  1  0
  8  9  1  0
  9 10  2  0
  9 18  1  0
 10 11  1  0
 11 12  2  0
 12 13  1  0
 12 15  1  0
 13 14  1  0
 15 16  2  0
 15 17  1  0
 17 18  2  0
 18 19  1  0
 19 20  1  6
 19 22  1  0
 20 21  1  0
 22 23  1  0
 24 25  1  0
 26 27  1  0
M  END
>  <Formula>  (549) 
C21H25NO5

>  <FW>  (549) 
371.4269

>  <DSSTox_CID>  (549) 
342

>  <NR-Aromatase>  (549) 
0

>  <NR-AR>  (549) 
0

>  <NR-ER>  (549) 
0

>  <SR-ATAD5>  (549) 
1

>  <SR-MMP>  (549) 
1

>  <SR-p53>  (549) 
1

$$$$
NCGC00188444-01
     RDKit          2D

 46 52  0  0  1  0  0  0  0  0999 V2000
    0.7125   -4.1158    0.0000 P   0  0  0  0  0  0  0  0  0  0  0  0
    0.0000   -3.7126    0.0000 O   0  0  0  0  0  0  0  0  0  0  0  0
    1.4344   -4.5376    0.0000 O   0  0  0  0  0  0  0  0  0  0  0  0
    0.3000   -4.8376    0.0000 O   0  0  0  0  0  0  0  0  0  0  0  0
    2.3907   -1.2750    0.0000 C   0  0  0  0  0  0  0  0  0  0  0  0
    1.9500   -1.9782    0.0000 O   0  0  0  0  0  0  0  0  0  0  0  0
    2.3626   -2.7001    0.0000 C   0  0  0  0  0  0  0  0  0  0  0  0
    3.1876   -2.7001    0.0000 C   0  0  0  0  0  0  0  0  0  0  0  0
    3.6001   -3.4032    0.0000 C   0  0  0  0  0  0  0  0  0  0  0  0
    3.1876   -4.1251    0.0000 C   0  0  0  0  0  0  0  0  0  0  0  0
    2.3626   -4.1251    0.0000 C   0  0  0  0  0  0  0  0  0  0  0  0
    1.9500   -4.8470    0.0000 O   0  0  0  0  0  0  0  0  0  0  0  0
    2.2969   -5.5877    0.0000 C   0  0  0  0  0  0  0  0  0  0  0  0
    1.9500   -3.4032    0.0000 C   0  0  0  0  0  0  0  0  0  0  0  0
    1.1250   -3.4032    0.0000 O   0  0  0  0  0  0  0  0  0  0  0  0
    4.4251   -3.4032    0.0000 C   0  0  0  0  0  0  0  0  0  0  0  0
    4.8376   -2.7001    0.0000 C   0  0  0  0  0  0  0  0  0  0  0  0
    4.4251   -1.9782    0.0000 C   0  0  0  0  0  0  0  0  0  0  0  0
    4.8376   -1.2656    0.0000 C   0  0  0  0  0  0  0  0  0  0  0  0
    4.5845   -0.4781    0.0000 O   0  0  0  0  0  0  0  0  0  0  0  0
    5.2502    0.0000    0.0000 C   0  0  0  0  0  0  0  0  0  0  0  0
    5.9158   -0.4781    0.0000 O   0  0  0  0  0  0  0  0  0  0  0  0
    5.6626   -1.2656    0.0000 C   0  0  0  0  0  0  0  0  0  0  0  0
    6.0752   -1.9782    0.0000 C   0  0  0  0  0  0  0  0  0  0  0  0
    5.6626   -2.7001    0.0000 C   0  0  0  0  0  0  0  0  0  0  0  0
    6.0752   -3.4032    0.0000 C   0  0  0  0  0  0  0  0  0  0  0  0
    6.9002   -3.4032    0.0000 O   0  0  0  0  0  0  0  0  0  0  0  0
    7.3127   -4.1251    0.0000 C   0  0  0  0  0  0  0  0  0  0  0  0
    6.9002   -4.8470    0.0000 O   0  0  0  0  0  0  0  0  0  0  0  0
    7.3127   -5.5501    0.0000 C   0  0  0  0  0  0  0  0  0  0  0  0
    6.9002   -6.2627    0.0000 C   0  0  0  0  0  0  0  0  0  0  0  0
    7.3127   -6.9845    0.0000 O   0  0  0  0  0  0  0  0  0  0  0  0
    8.1471   -6.9845    0.0000 C   0  0  0  0  0  0  0  0  0  0  0  0
    8.5502   -7.6970    0.0000 C   0  0  0  0  0  0  0  0  0  0  0  0
    8.5502   -6.2627    0.0000 O   0  0  0  0  0  0  0  0  0  0  0  0
    8.1471   -5.5501    0.0000 C   0  0  0  0  0  0  0  0  0  0  0  0
    8.5502   -4.8470    0.0000 C   0  0  0  0  0  0  0  0  0  0  0  0
    9.3752   -4.8470    0.0000 O   0  0  0  0  0  0  0  0  0  0  0  0
    8.1471   -4.1251    0.0000 C   0  0  0  0  0  0  0  0  0  0  0  0
    8.5502   -3.4032    0.0000 O   0  0  0  0  0  0  0  0  0  0  0  0
    5.6626   -4.1251    0.0000 C   0  0  0  0  0  0  0  0  0  0  0  0
    5.9158   -4.9033    0.0000 C   0  0  0  0  0  0  0  0  0  0  0  0
    5.2502   -5.3908    0.0000 O   0  0  0  0  0  0  0  0  0  0  0  0
    4.5845   -4.9033    0.0000 C   0  0  0  0  0  0  0  0  0  0  0  0
    3.7970   -5.1658    0.0000 O   0  0  0  0  0  0  0  0  0  0  0  0
    4.8376   -4.1251    0.0000 C   0  0  0  0  0  0  0  0  0  0  0  0
  1  2  1  0
  1  3  2  0
  1  4  1  0
  1 15  1  0
  5  6  1  0
  6  7  1  0
  7  8  2  0
  7 14  1  0
  8  9  1  0
  9 10  2  0
 16  9  1  6
 10 11  1  0
 11 12  1  0
 11 14  2  0
 12 13  1  0
 14 15  1  0
 16 17  1  0
 16 46  1  0
 17 18  2  0
 17 25  1  0
 18 19  1  0
 19 20  1  0
 19 23  2  0
 20 21  1  0
 21 22  1  0
 22 23  1  0
 23 24  1  0
 24 25  2  0
 25 26  1  0
 26 27  1  0
 26 41  1  0
 28 27  1  1
 28 29  1  0
 28 39  1  0
 30 29  1  0
 30 31  1  1
 30 36  1  0
 31 32  1  0
 32 33  1  0
 33 34  1  6
 33 35  1  0
 36 35  1  6
 36 37  1  0
 37 38  1  1
 37 39  1  0
 39 40  1  6
 41 42  1  0
 41 46  1  0
 42 43  1  0
 43 44  1  0
 44 45  2  0
 46 44  1  6
M  END
>  <Formula>  (550) 
C29H33O16P

>  <FW>  (550) 
668.5365

>  <DSSTox_CID>  (550) 
28571

>  <NR-Aromatase>  (550) 
0

>  <NR-AR>  (550) 
0

>  <NR-AR-LBD>  (550) 
0

>  <NR-ER>  (550) 
1

>  <SR-ATAD5>  (550) 
1

>  <SR-MMP>  (550) 
0

>  <SR-p53>  (550) 
1

$$$$
NCGC00181306-01
     RDKit          2D

 58 63  0  0  1  0  0  0  0  0999 V2000
    8.8793   -2.5726    0.0000 C   0  0  0  0  0  0  0  0  0  0  0  0
    9.6174   -3.8209    0.0000 C   0  0  0  0  0  0  0  0  0  0  0  0
    6.9905   -3.5930    0.0000 C   0  0  0  0  0  0  0  0  0  0  0  0
    8.8793   -3.3976    0.0000 C   0  0  0  0  0  0  0  0  0  0  0  0
    6.9905   -2.1601    0.0000 C   0  0  0  0  0  0  0  0  0  0  0  0
    7.4139   -2.8874    0.0000 C   0  0  0  0  0  0  0  0  0  0  0  0
    8.4233   -1.7802    0.0000 C   0  0  0  0  0  0  0  0  0  0  0  0
    8.0217   -4.2660    0.0000 C   0  0  0  0  0  0  0  0  0  0  0  0
    7.5984   -1.7802    0.0000 C   0  0  0  0  0  0  0  0  0  0  0  0
    6.1547   -2.1601    0.0000 C   0  0  0  0  0  0  0  0  0  0  0  0
    6.1656   -3.5930    0.0000 C   0  0  0  0  0  0  0  0  0  0  0  0
    5.7314   -2.8874    0.0000 C   0  0  0  0  0  0  0  0  0  0  0  0
    4.1900   -2.4749    0.0000 C   0  0  0  0  0  0  0  0  0  0  0  0
    9.6174   -2.1492    0.0000 C   0  0  0  0  0  0  0  0  0  0  0  0
    3.4735   -2.8874    0.0000 C   0  0  0  0  0  0  0  0  0  0  0  0
   10.3339   -3.3976    0.0000 C   0  0  0  0  0  0  0  0  0  0  0  0
    2.0299   -2.9091    0.0000 N   0  0  0  0  0  0  0  0  0  0  0  0
    8.0217   -5.0909    0.0000 O   0  0  0  0  0  0  0  0  0  0  0  0
    2.7355   -2.4749    0.0000 C   0  0  0  0  0  0  0  0  0  0  0  0
    2.0299   -3.7232    0.0000 C   0  0  0  0  0  0  0  0  0  0  0  0
    7.3922   -5.6011    0.0000 C   0  0  0  0  0  0  0  0  0  0  0  0
    4.8955   -2.8874    0.0000 O   0  0  0  0  0  0  0  0  0  0  0  0
   10.0733   -4.4831    0.0000 C   0  0  0  0  0  0  0  0  0  0  0  0
   10.3339   -2.5726    0.0000 C   0  0  0  0  0  0  0  0  0  0  0  0
    9.4329   -4.3962    0.0000 O   0  0  0  0  0  0  0  0  0  0  0  0
   10.8549   -3.9621    0.0000 O   0  0  0  0  0  0  0  0  0  0  0  0
    7.1533   -1.0638    0.0000 O   0  0  0  0  0  0  0  0  0  0  0  0
    8.9878   -4.8521    0.0000 C   0  0  0  0  0  0  0  0  0  0  0  0
    8.8467   -1.1615    0.0000 O   0  0  0  0  0  0  0  0  0  0  0  0
    4.1900   -1.6391    0.0000 O   0  0  0  0  0  0  0  0  0  0  0  0
    2.6920   -4.1791    0.0000 O   0  0  0  0  0  0  0  0  0  0  0  0
    6.6540   -5.2103    0.0000 O   0  0  0  0  0  0  0  0  0  0  0  0
    6.6323   -4.2117    0.0000 O   0  0  0  0  0  0  0  0  0  0  0  0
    1.4112   -4.1357    0.0000 O   0  0  0  0  0  0  0  0  0  0  0  0
    7.3922   -6.3501    0.0000 C   0  0  0  0  0  0  0  0  0  0  0  0
    2.7355   -1.6391    0.0000 C   0  0  0  0  0  0  0  0  0  0  0  0
    8.4668   -4.5808    0.0000 O   0  0  0  0  0  0  0  0  0  0  0  0
    9.0530   -1.6065    0.0000 C   0  0  0  0  0  0  0  0  0  0  0  0
    3.4735   -3.7232    0.0000 O   0  0  0  0  0  0  0  0  0  0  0  0
   10.0407   -1.3677    0.0000 O   0  0  0  0  0  0  0  0  0  0  0  0
    7.7612   -2.3338    0.0000 C   0  0  0  0  0  0  0  0  0  0  0  0
    7.7178   -3.3433    0.0000 C   0  0  0  0  0  0  0  0  0  0  0  0
    5.7314   -1.4437    0.0000 C   0  0  0  0  0  0  0  0  0  0  0  0
    8.9878   -5.4383    0.0000 C   0  0  0  0  0  0  0  0  0  0  0  0
    0.7164   -3.7232    0.0000 C   0  0  0  0  0  0  0  0  0  0  0  0
    6.6866   -6.7626    0.0000 C   0  0  0  0  0  0  0  0  0  0  0  0
    8.0869   -6.7626    0.0000 C   0  0  0  0  0  0  0  0  0  0  0  0
    3.4735   -1.2266    0.0000 C   0  0  0  0  0  0  0  0  0  0  0  0
    2.0299   -1.2266    0.0000 C   0  0  0  0  0  0  0  0  0  0  0  0
    3.4735   -0.4016    0.0000 C   0  0  0  0  0  0  0  0  0  0  0  0
    6.6866   -7.5767    0.0000 C   0  0  0  0  0  0  0  0  0  0  0  0
    2.0299   -0.4016    0.0000 C   0  0  0  0  0  0  0  0  0  0  0  0
    8.0869   -7.5767    0.0000 C   0  0  0  0  0  0  0  0  0  0  0  0
    7.3922   -7.9892    0.0000 C   0  0  0  0  0  0  0  0  0  0  0  0
    2.7355    0.0000    0.0000 C   0  0  0  0  0  0  0  0  0  0  0  0
    0.0000   -4.1249    0.0000 C   0  0  0  0  0  0  0  0  0  0  0  0
    0.6947   -2.8983    0.0000 C   0  0  0  0  0  0  0  0  0  0  0  0
    0.7056   -4.5482    0.0000 C   0  0  0  0  0  0  0  0  0  0  0  0
  1  4  1  0
  1  7  1  0
  1 14  1  0
  1 38  1  1
  2  4  1  0
  2 23  1  0
  2 25  1  6
  2 16  1  0
  3  8  1  0
  3 11  1  0
  3 33  1  1
  3  6  1  0
  4  8  1  1
  5  9  1  0
  5  6  1  0
  5 10  2  0
  6 41  1  0
  6 42  1  0
  7  9  1  0
  7 29  2  0
  8 18  1  6
  9 27  1  1
 10 12  1  0
 10 43  1  0
 11 12  1  0
 12 22  1  6
 13 22  1  0
 13 15  1  0
 13 30  2  0
 14 24  1  0
 14 40  1  1
 15 19  1  0
 15 39  1  6
 16 24  1  1
 16 26  1  0
 19 17  1  1
 17 20  1  0
 18 21  1  0
 19 36  1  0
 20 31  2  0
 20 34  1  0
 21 32  2  0
 21 35  1  0
 23 26  1  0
 25 28  1  0
 28 37  2  0
 28 44  1  0
 34 45  1  0
 35 46  2  0
 35 47  1  0
 36 48  2  0
 36 49  1  0
 45 56  1  0
 45 57  1  0
 45 58  1  0
 46 51  1  0
 47 53  2  0
 48 50  1  0
 49 52  2  0
 50 55  2  0
 51 54  2  0
 52 55  1  0
 53 54  1  0
M  END
>  <Formula>  (551) 
C43H53NO14

>  <FW>  (551) 
807.8792

>  <DSSTox_CID>  (551) 
20464

>  <NR-Aromatase>  (551) 
0

>  <NR-AR>  (551) 
0

>  <NR-ER>  (551) 
0

>  <NR-AhR>  (551) 
0

>  <SR-ATAD5>  (551) 
0

>  <SR-p53>  (551) 
1

$$$$
NCGC00258711-01
     RDKit          2D

 39 42  0  0  1  0  0  0  0  0999 V2000
    5.0456   -5.0061    0.0000 C   0  0  0  0  0  0  0  0  0  0  0  0
    5.0456   -4.1678    0.0000 C   0  0  0  0  0  0  0  0  0  0  0  0
    5.7653   -3.7644    0.0000 C   0  0  0  0  0  0  0  0  0  0  0  0
    5.7653   -5.4094    0.0000 C   0  0  0  0  0  0  0  0  0  0  0  0
    3.6458   -4.1678    0.0000 C   0  0  0  0  0  0  0  0  0  0  0  0
    3.6458   -5.0061    0.0000 C   0  0  0  0  0  0  0  0  0  0  0  0
    6.4771   -4.1678    0.0000 C   0  0  0  0  0  0  0  0  0  0  0  0
    4.3418   -5.4094    0.0000 C   0  0  0  0  0  0  0  0  0  0  0  0
    4.3418   -3.7644    0.0000 C   0  0  0  0  0  0  0  0  0  0  0  0
    6.4771   -5.0061    0.0000 C   0  0  0  0  0  0  0  0  0  0  0  0
    2.2144   -5.0061    0.0000 C   0  0  0  0  0  0  0  0  0  0  0  0
    2.9262   -3.7644    0.0000 C   0  0  0  0  0  0  0  0  0  0  0  0
    2.9262   -5.4094    0.0000 C   0  0  0  0  0  0  0  0  0  0  0  0
    2.2144   -4.1678    0.0000 C   0  0  0  0  0  0  0  0  0  0  0  0
    2.9262   -2.5307    0.0000 O   0  0  0  0  0  0  0  0  0  0  0  0
    1.4789   -5.4252    0.0000 C   0  0  0  0  0  0  0  0  0  0  0  0
    5.7653   -6.2398    0.0000 O   0  0  0  0  0  0  0  0  0  0  0  0
    5.7653   -2.9420    0.0000 O   0  0  0  0  0  0  0  0  0  0  0  0
    7.1967   -3.7644    0.0000 C   0  0  0  0  0  0  0  0  0  0  0  0
    0.7592   -5.0061    0.0000 O   0  0  0  0  0  0  0  0  0  0  0  0
    4.3418   -6.2398    0.0000 O   0  0  0  0  0  0  0  0  0  0  0  0
    4.3418   -2.9420    0.0000 O   0  0  0  0  0  0  0  0  0  0  0  0
    1.3523   -4.4209    0.0000 O   0  0  0  0  0  0  0  0  0  0  0  0
    7.1967   -5.4094    0.0000 C   0  0  0  0  0  0  0  0  0  0  0  0
    7.1967   -2.9420    0.0000 O   0  0  0  0  0  0  0  0  0  0  0  0
    7.8768   -5.0061    0.0000 C   0  0  0  0  0  0  0  0  0  0  0  0
    7.8768   -4.1678    0.0000 C   0  0  0  0  0  0  0  0  0  0  0  0
    1.4789   -6.2636    0.0000 C   0  0  0  0  0  0  0  0  0  0  0  0
    7.9085   -2.5307    0.0000 C   0  0  0  0  0  0  0  0  0  0  0  0
    2.1986   -2.0958    0.0000 C   0  0  0  0  0  0  0  0  0  0  0  0
    1.4631   -2.5307    0.0000 C   0  0  0  0  0  0  0  0  0  0  0  0
    2.1986   -1.2575    0.0000 O   0  0  0  0  0  0  0  0  0  0  0  0
    0.7434   -2.0958    0.0000 C   0  0  0  0  0  0  0  0  0  0  0  0
    1.4631   -0.8383    0.0000 C   0  0  0  0  0  0  0  0  0  0  0  0
    0.7434   -1.2575    0.0000 C   0  0  0  0  0  0  0  0  0  0  0  0
    0.0000   -2.5307    0.0000 N   0  0  0  0  0  0  0  0  0  0  0  0
    0.0000   -0.8383    0.0000 O   0  0  0  0  0  0  0  0  0  0  0  0
    1.4631    0.0000    0.0000 C   0  0  0  0  0  0  0  0  0  0  0  0
    3.2030   -6.2636    0.0000 Cl  0  0  0  0  0  0  0  0  0  0  0  0
  1  2  2  0
  1  4  1  0
  1  8  1  0
  2  3  1  0
  2  9  1  0
  3 18  2  0
  3  7  1  0
  4 10  1  0
  4 17  2  0
  5  6  1  0
  5 12  1  0
  5  9  2  0
  6  8  2  0
  6 13  1  0
  7 10  2  0
  7 19  1  0
  8 21  1  0
  9 22  1  0
 10 24  1  0
 11 13  1  0
 11 14  1  0
 11 16  1  0
 11 23  1  6
 12 15  1  6
 12 14  1  0
 30 15  1  1
 16 20  2  0
 16 28  1  0
 19 25  1  0
 19 27  2  0
 24 26  2  0
 25 29  1  0
 26 27  1  0
 30 31  1  0
 30 32  1  0
 31 33  1  0
 32 34  1  0
 33 35  1  0
 33 36  1  6
 34 35  1  0
 34 38  1  6
 35 37  1  6
M  END
>  <Formula>  (552) 
C27H30ClNO10

>  <FW>  (552) 
563.9808 (527.5199+36.4609)

>  <DSSTox_CID>  (552) 
13382

>  <NR-Aromatase>  (552) 
1

>  <NR-AR>  (552) 
0

>  <NR-AR-LBD>  (552) 
1

>  <NR-ER-LBD>  (552) 
1

>  <SR-ATAD5>  (552) 
1

>  <SR-p53>  (552) 
1

$$$$
NCGC00255354-01
     RDKit          2D

 23 24  0  0  0  0  0  0  0  0999 V2000
    2.2346   -2.4702    0.0000 N   0  0  0  0  0  0  0  0  0  0  0  0
    1.5703   -2.9594    0.0000 C   0  0  0  0  0  0  0  0  0  0  0  0
    2.8990   -2.9594    0.0000 C   0  0  0  0  0  0  0  0  0  0  0  0
    1.8300   -3.7445    0.0000 C   0  0  0  0  0  0  0  0  0  0  0  0
    2.6514   -3.7445    0.0000 C   0  0  0  0  0  0  0  0  0  0  0  0
    3.1285   -4.4088    0.0000 C   0  0  0  0  0  0  0  0  0  0  0  0
    3.6177   -5.0732    0.0000 N   0  0  0  0  0  0  0  0  0  0  0  0
    1.3408   -4.4088    0.0000 Br  0  0  0  0  0  0  0  0  0  0  0  0
    3.6841   -2.6997    0.0000 C   0  0  0  0  0  0  0  0  0  0  0  0
    4.3001   -3.2553    0.0000 C   0  0  0  0  0  0  0  0  0  0  0  0
    3.8653   -1.8964    0.0000 C   0  0  0  0  0  0  0  0  0  0  0  0
    5.0853   -2.9956    0.0000 C   0  0  0  0  0  0  0  0  0  0  0  0
    4.6383   -1.6367    0.0000 C   0  0  0  0  0  0  0  0  0  0  0  0
    5.2544   -2.1924    0.0000 C   0  0  0  0  0  0  0  0  0  0  0  0
    6.0395   -1.9327    0.0000 Cl  0  0  0  0  0  0  0  0  0  0  0  0
    2.2346   -1.6488    0.0000 C   0  0  0  0  0  0  0  0  0  0  0  0
    1.5220   -1.2260    0.0000 O   0  0  0  0  0  0  0  0  0  0  0  0
    1.5220   -0.4047    0.0000 C   0  0  0  0  0  0  0  0  0  0  0  0
    0.8033    0.0000    0.0000 C   0  0  0  0  0  0  0  0  0  0  0  0
    0.7851   -2.6997    0.0000 C   0  0  0  0  0  0  0  0  0  0  0  0
    1.0448   -1.9145    0.0000 F   0  0  0  0  0  0  0  0  0  0  0  0
    0.5254   -3.4848    0.0000 F   0  0  0  0  0  0  0  0  0  0  0  0
    0.0000   -2.4400    0.0000 F   0  0  0  0  0  0  0  0  0  0  0  0
  1  2  1  0
  1  3  1  0
  1 16  1  0
  2  4  2  0
  2 20  1  0
  3  5  2  0
  3  9  1  0
  4  5  1  0
  4  8  1  0
  5  6  1  0
  6  7  3  0
  9 10  2  0
  9 11  1  0
 10 12  1  0
 11 13  2  0
 12 14  2  0
 13 14  1  0
 14 15  1  0
 16 17  1  0
 17 18  1  0
 18 19  1  0
 20 21  1  0
 20 22  1  0
 20 23  1  0
M  END
>  <Formula>  (553) 
C15H11BrClF3N2O

>  <FW>  (553) 
407.6128

>  <DSSTox_CID>  (553) 
12533

>  <NR-AR>  (553) 
0

>  <NR-AhR>  (553) 
0

>  <SR-ATAD5>  (553) 
0

>  <SR-HSE>  (553) 
1

>  <SR-MMP>  (553) 
1

>  <SR-p53>  (553) 
1

$$$$
NCGC00255075-01
     RDKit          2D

 29 30  0  0  0  0  0  0  0  0999 V2000
    2.8538   -2.3591    0.0000 N   0  0  0  0  0  0  0  0  0  0  0  0
    2.1385   -2.7777    0.0000 C   0  0  0  0  0  0  0  0  0  0  0  0
    2.8538   -1.5449    0.0000 C   0  0  0  0  0  0  0  0  0  0  0  0
    2.1385   -1.1339    0.0000 C   0  0  0  0  0  0  0  0  0  0  0  0
    1.4231   -2.3591    0.0000 C   0  0  0  0  0  0  0  0  0  0  0  0
    1.4231   -1.5449    0.0000 C   0  0  0  0  0  0  0  0  0  0  0  0
    3.5539   -1.1339    0.0000 N   0  0  0  0  0  0  0  0  0  0  0  0
    2.1385   -0.3120    0.0000 Cl  0  0  0  0  0  0  0  0  0  0  0  0
    4.7564   -1.6438    0.0000 C   0  0  0  0  0  0  0  0  0  0  0  0
    5.4717   -1.2328    0.0000 C   0  0  0  0  0  0  0  0  0  0  0  0
    4.7564   -2.4581    0.0000 C   0  0  0  0  0  0  0  0  0  0  0  0
    6.1871   -1.6438    0.0000 C   0  0  0  0  0  0  0  0  0  0  0  0
    5.4717   -2.8767    0.0000 C   0  0  0  0  0  0  0  0  0  0  0  0
    6.1871   -2.4581    0.0000 C   0  0  0  0  0  0  0  0  0  0  0  0
    6.8948   -1.2328    0.0000 Cl  0  0  0  0  0  0  0  0  0  0  0  0
    5.4717   -0.4110    0.0000 N   0  0  0  0  0  0  0  0  0  0  0  0
    4.7564    0.0000    0.0000 O   0  0  0  0  0  0  0  0  0  0  0  0
    6.1871    0.0000    0.0000 O   0  0  0  0  0  0  0  0  0  0  0  0
    4.0486   -2.8767    0.0000 N   0  0  0  0  0  0  0  0  0  0  0  0
    4.0486   -3.6985    0.0000 O   0  0  0  0  0  0  0  0  0  0  0  0
    3.3941   -2.4505    0.0000 O   0  0  0  0  0  0  0  0  0  0  0  0
    6.8948   -2.8767    0.0000 C   0  0  0  0  0  0  0  0  0  0  0  0
    6.4839   -3.5920    0.0000 F   0  0  0  0  0  0  0  0  0  0  0  0
    7.3058   -2.1613    0.0000 F   0  0  0  0  0  0  0  0  0  0  0  0
    7.6102   -3.2800    0.0000 F   0  0  0  0  0  0  0  0  0  0  0  0
    0.7154   -2.7777    0.0000 C   0  0  0  0  0  0  0  0  0  0  0  0
    0.2968   -2.0624    0.0000 F   0  0  0  0  0  0  0  0  0  0  0  0
    1.1187   -3.4931    0.0000 F   0  0  0  0  0  0  0  0  0  0  0  0
    0.0000   -3.1811    0.0000 F   0  0  0  0  0  0  0  0  0  0  0  0
  1  2  2  0
  1  3  1  0
  2  5  1  0
  3  4  2  0
  3  7  1  0
  4  6  1  0
  4  8  1  0
  5  6  2  0
  5 26  1  0
  7  9  1  0
  9 10  2  0
  9 11  1  0
 10 12  1  0
 10 16  1  0
 11 13  2  0
 11 19  1  0
 12 14  2  0
 12 15  1  0
 13 14  1  0
 14 22  1  0
 16 17  1  0
 16 18  2  0
 19 20  1  0
 19 21  2  0
 22 23  1  0
 22 24  1  0
 22 25  1  0
 26 27  1  0
 26 28  1  0
 26 29  1  0
M  CHG  4  16   1  17  -1  19   1  20  -1
M  END
>  <Formula>  (554) 
C13H4Cl2F6N4O4

>  <FW>  (554) 
465.0917

>  <DSSTox_CID>  (554) 
12551

>  <NR-Aromatase>  (554) 
1

>  <NR-AR>  (554) 
0

>  <NR-ER-LBD>  (554) 
1

>  <NR-PPAR-gamma>  (554) 
1

>  <NR-AhR>  (554) 
1

>  <SR-ATAD5>  (554) 
0

>  <SR-HSE>  (554) 
1

>  <SR-p53>  (554) 
1

$$$$
NCGC00159344-02
     RDKit          2D

 37 41  0  0  1  0  0  0  0  0999 V2000
    2.8520   -1.2375    0.0000 C   0  0  0  0  0  0  0  0  0  0  0  0
    2.8520   -2.0697    0.0000 C   0  0  0  0  0  0  0  0  0  0  0  0
    2.1336   -2.4750    0.0000 C   0  0  0  0  0  0  0  0  0  0  0  0
    2.1336   -0.8250    0.0000 C   0  0  0  0  0  0  0  0  0  0  0  0
    4.2602   -2.0697    0.0000 C   0  0  0  0  0  0  0  0  0  0  0  0
    4.2602   -1.2375    0.0000 C   0  0  0  0  0  0  0  0  0  0  0  0
    1.4224   -2.0697    0.0000 C   0  0  0  0  0  0  0  0  0  0  0  0
    3.5561   -0.8250    0.0000 C   0  0  0  0  0  0  0  0  0  0  0  0
    3.5561   -2.4750    0.0000 C   0  0  0  0  0  0  0  0  0  0  0  0
    1.4224   -1.2375    0.0000 C   0  0  0  0  0  0  0  0  0  0  0  0
    5.6897   -1.2375    0.0000 C   0  0  0  0  0  0  0  0  0  0  0  0
    4.9643   -2.4750    0.0000 C   0  0  0  0  0  0  0  0  0  0  0  0
    4.9643   -0.8250    0.0000 C   0  0  0  0  0  0  0  0  0  0  0  0
    5.6897   -2.0697    0.0000 C   0  0  0  0  0  0  0  0  0  0  0  0
    4.9643   -3.7766    0.0000 O   0  0  0  0  0  0  0  0  0  0  0  0
    6.4081   -0.8250    0.0000 C   0  0  0  0  0  0  0  0  0  0  0  0
    2.1336    0.0000    0.0000 O   0  0  0  0  0  0  0  0  0  0  0  0
    2.1336   -3.2929    0.0000 O   0  0  0  0  0  0  0  0  0  0  0  0
    0.7183   -2.4750    0.0000 C   0  0  0  0  0  0  0  0  0  0  0  0
    7.1121   -1.2375    0.0000 O   0  0  0  0  0  0  0  0  0  0  0  0
    3.5561    0.0000    0.0000 O   0  0  0  0  0  0  0  0  0  0  0  0
    3.5561   -3.2929    0.0000 O   0  0  0  0  0  0  0  0  0  0  0  0
    6.5077   -1.7780    0.0000 O   0  0  0  0  0  0  0  0  0  0  0  0
    0.7183   -0.8250    0.0000 C   0  0  0  0  0  0  0  0  0  0  0  0
    0.7183   -3.2929    0.0000 O   0  0  0  0  0  0  0  0  0  0  0  0
    0.0000   -1.2375    0.0000 C   0  0  0  0  0  0  0  0  0  0  0  0
    0.0000   -2.0697    0.0000 C   0  0  0  0  0  0  0  0  0  0  0  0
    6.4081    0.0000    0.0000 C   0  0  0  0  0  0  0  0  0  0  0  0
    4.2602   -4.6016    0.0000 C   0  0  0  0  0  0  0  0  0  0  0  0
    4.2602   -5.4266    0.0000 C   0  0  0  0  0  0  0  0  0  0  0  0
    3.5490   -4.1820    0.0000 O   0  0  0  0  0  0  0  0  0  0  0  0
    3.5490   -5.8533    0.0000 C   0  0  0  0  0  0  0  0  0  0  0  0
    2.8235   -4.6016    0.0000 C   0  0  0  0  0  0  0  0  0  0  0  0
    2.8235   -5.4266    0.0000 C   0  0  0  0  0  0  0  0  0  0  0  0
    3.5490   -6.6783    0.0000 N   0  0  0  0  0  0  0  0  0  0  0  0
    2.1052   -5.8533    0.0000 O   0  0  0  0  0  0  0  0  0  0  0  0
    2.1052   -4.1820    0.0000 C   0  0  0  0  0  0  0  0  0  0  0  0
  1  2  2  0
  1  4  1  0
  1  8  1  0
  2  3  1  0
  2  9  1  0
  3 18  2  0
  3  7  1  0
  4 10  1  0
  4 17  2  0
  5  6  1  0
  5 12  1  0
  5  9  2  0
  6  8  2  0
  6 13  1  0
  7 10  2  0
  7 19  1  0
  8 21  1  0
  9 22  1  0
 10 24  1  0
 11 13  1  0
 11 14  1  0
 11 16  1  0
 11 23  1  6
 12 15  1  6
 12 14  1  0
 29 15  1  1
 16 20  2  0
 16 28  1  0
 19 25  1  0
 19 27  2  0
 24 26  2  0
 26 27  1  0
 29 30  1  0
 29 31  1  0
 30 32  1  0
 31 33  1  0
 32 34  1  0
 32 35  1  6
 33 34  1  0
 33 37  1  6
 34 36  1  6
M  END
>  <Formula>  (555) 
C26H27NO10

>  <FW>  (555) 
513.4933

>  <DSSTox_CID>  (555) 
2742

>  <NR-Aromatase>  (555) 
1

>  <NR-AR>  (555) 
0

>  <NR-AR-LBD>  (555) 
1

>  <NR-ER-LBD>  (555) 
1

>  <SR-ATAD5>  (555) 
1

>  <SR-MMP>  (555) 
1

>  <SR-p53>  (555) 
1

$$$$
NCGC00160675-01
     RDKit          2D

 37 41  0  0  1  0  0  0  0  0999 V2000
    2.8520   -1.2375    0.0000 C   0  0  0  0  0  0  0  0  0  0  0  0
    2.8520   -2.0697    0.0000 C   0  0  0  0  0  0  0  0  0  0  0  0
    2.1336   -2.4750    0.0000 C   0  0  0  0  0  0  0  0  0  0  0  0
    2.1336   -0.8250    0.0000 C   0  0  0  0  0  0  0  0  0  0  0  0
    4.2602   -2.0697    0.0000 C   0  0  0  0  0  0  0  0  0  0  0  0
    4.2602   -1.2375    0.0000 C   0  0  0  0  0  0  0  0  0  0  0  0
    1.4224   -2.0697    0.0000 C   0  0  0  0  0  0  0  0  0  0  0  0
    3.5561   -0.8250    0.0000 C   0  0  0  0  0  0  0  0  0  0  0  0
    3.5561   -2.4750    0.0000 C   0  0  0  0  0  0  0  0  0  0  0  0
    1.4224   -1.2375    0.0000 C   0  0  0  0  0  0  0  0  0  0  0  0
    5.6897   -1.2375    0.0000 C   0  0  0  0  0  0  0  0  0  0  0  0
    4.9643   -2.4750    0.0000 C   0  0  0  0  0  0  0  0  0  0  0  0
    4.9643   -0.8250    0.0000 C   0  0  0  0  0  0  0  0  0  0  0  0
    5.6897   -2.0697    0.0000 C   0  0  0  0  0  0  0  0  0  0  0  0
    4.9643   -3.7766    0.0000 O   0  0  0  0  0  0  0  0  0  0  0  0
    6.4081   -0.8250    0.0000 C   0  0  0  0  0  0  0  0  0  0  0  0
    2.1336    0.0000    0.0000 O   0  0  0  0  0  0  0  0  0  0  0  0
    2.1336   -3.2929    0.0000 O   0  0  0  0  0  0  0  0  0  0  0  0
    0.7183   -2.4750    0.0000 C   0  0  0  0  0  0  0  0  0  0  0  0
    7.1121   -1.2375    0.0000 O   0  0  0  0  0  0  0  0  0  0  0  0
    3.5561    0.0000    0.0000 O   0  0  0  0  0  0  0  0  0  0  0  0
    3.5561   -3.2929    0.0000 O   0  0  0  0  0  0  0  0  0  0  0  0
    6.5077   -1.7780    0.0000 O   0  0  0  0  0  0  0  0  0  0  0  0
    0.7183   -0.8250    0.0000 C   0  0  0  0  0  0  0  0  0  0  0  0
    0.7183   -3.2929    0.0000 O   0  0  0  0  0  0  0  0  0  0  0  0
    0.0000   -1.2375    0.0000 C   0  0  0  0  0  0  0  0  0  0  0  0
    0.0000   -2.0697    0.0000 C   0  0  0  0  0  0  0  0  0  0  0  0
    6.4081    0.0000    0.0000 C   0  0  0  0  0  0  0  0  0  0  0  0
    4.2602   -4.6016    0.0000 C   0  0  0  0  0  0  0  0  0  0  0  0
    4.2602   -5.4266    0.0000 C   0  0  0  0  0  0  0  0  0  0  0  0
    3.5490   -4.1820    0.0000 O   0  0  0  0  0  0  0  0  0  0  0  0
    3.5490   -5.8533    0.0000 C   0  0  0  0  0  0  0  0  0  0  0  0
    2.8235   -4.6016    0.0000 C   0  0  0  0  0  0  0  0  0  0  0  0
    2.8235   -5.4266    0.0000 C   0  0  0  0  0  0  0  0  0  0  0  0
    3.5490   -6.6783    0.0000 N   0  0  0  0  0  0  0  0  0  0  0  0
    2.1052   -5.8533    0.0000 O   0  0  0  0  0  0  0  0  0  0  0  0
    2.1052   -4.1820    0.0000 C   0  0  0  0  0  0  0  0  0  0  0  0
  1  2  2  0
  1  4  1  0
  1  8  1  0
  2  3  1  0
  2  9  1  0
  3 18  2  0
  3  7  1  0
  4 10  1  0
  4 17  2  0
  5  6  1  0
  5 12  1  0
  5  9  2  0
  6  8  2  0
  6 13  1  0
  7 10  2  0
  7 19  1  0
  8 21  1  0
  9 22  1  0
 10 24  1  0
 11 13  1  0
 11 14  1  0
 11 16  1  0
 11 23  1  6
 12 15  1  6
 12 14  1  0
 29 15  1  1
 16 20  2  0
 16 28  1  0
 19 25  1  0
 19 27  2  0
 24 26  2  0
 26 27  1  0
 29 30  1  0
 29 31  1  0
 30 32  1  0
 31 33  1  0
 32 34  1  0
 32 35  1  6
 33 34  1  0
 33 37  1  6
 34 36  1  6
M  END
>  <Formula>  (556) 
C26H27NO10

>  <FW>  (556) 
513.4933

>  <DSSTox_CID>  (556) 
2742

>  <NR-Aromatase>  (556) 
1

>  <NR-AR>  (556) 
0

>  <NR-AR-LBD>  (556) 
1

>  <NR-ER-LBD>  (556) 
1

>  <SR-ATAD5>  (556) 
1

>  <SR-MMP>  (556) 
1

>  <SR-p53>  (556) 
1

$$$$
NCGC00016576-01
     RDKit          2D

114123  0  0  0  0  0  0  0  0999 V2000
    4.9525   -5.8300    0.0000 C   0  0  0  0  0  0  0  0  0  0  0  0
    5.6218   -6.2167    0.0000 C   0  0  0  0  0  0  0  0  0  0  0  0
    4.9525  -12.3292    0.0000 C   0  0  0  0  0  0  0  0  0  0  0  0
    4.2089   -6.2167    0.0000 C   0  0  0  0  0  0  0  0  0  0  0  0
    6.3654   -5.8300    0.0000 N   0  0  0  0  0  0  0  0  0  0  0  0
    2.7960   -7.0495    0.0000 C   0  0  0  0  0  0  0  0  0  0  0  0
    6.3654  -10.6932    0.0000 C   0  0  0  0  0  0  0  0  0  0  0  0
    5.6218  -11.9128    0.0000 C   0  0  0  0  0  0  0  0  0  0  0  0
    5.6218   -7.0495    0.0000 C   0  0  0  0  0  0  0  0  0  0  0  0
    4.9525   -6.7520    0.0000 N   0  0  0  0  0  0  0  0  0  0  0  0
    4.2089   -7.0495    0.0000 N   0  0  0  0  0  0  0  0  0  0  0  0
    5.6218  -11.0800    0.0000 N   0  0  0  0  0  0  0  0  0  0  0  0
    6.3654   -8.2690    0.0000 C   0  0  0  0  0  0  0  0  0  0  0  0
    7.6890   -3.3463    0.0000 C   0  0  0  0  0  0  0  0  0  0  0  0
    6.3654   -7.4065    0.0000 N   0  0  0  0  0  0  0  0  0  0  0  0
   10.5742   -9.8604    0.0000 C   0  0  0  0  0  0  0  0  0  0  0  0
    4.2089  -11.9128    0.0000 N   0  0  0  0  0  0  0  0  0  0  0  0
    7.0495   -8.6260    0.0000 C   0  0  0  0  0  0  0  0  0  0  0  0
    7.0495   -3.7330    0.0000 N   0  0  0  0  0  0  0  0  0  0  0  0
    7.0495   -9.4737    0.0000 N   0  0  0  0  0  0  0  0  0  0  0  0
    2.0970   -8.2690    0.0000 N   0  0  0  0  0  0  0  0  0  0  0  0
    1.3682  -11.9128    0.0000 N   0  0  0  0  0  0  0  0  0  0  0  0
    9.8455   -9.4737    0.0000 N   0  0  0  0  0  0  0  0  0  0  0  0
    1.3682   -8.6260    0.0000 C   0  0  0  0  0  0  0  0  0  0  0  0
    1.3682   -9.4737    0.0000 C   0  0  0  0  0  0  0  0  0  0  0  0
    1.3682  -11.0800    0.0000 C   0  0  0  0  0  0  0  0  0  0  0  0
   12.7159   -9.4737    0.0000 N   0  0  0  0  0  0  0  0  0  0  0  0
    6.3654   -9.8604    0.0000 C   0  0  0  0  0  0  0  0  0  0  0  0
    2.0970   -7.4065    0.0000 C   0  0  0  0  0  0  0  0  0  0  0  0
    7.0495   -4.6105    0.0000 C   0  0  0  0  0  0  0  0  0  0  0  0
   10.5742  -10.6932    0.0000 C   0  0  0  0  0  0  0  0  0  0  0  0
   11.9871   -8.2839    0.0000 C   0  0  0  0  0  0  0  0  0  0  0  0
    0.6841   -9.8604    0.0000 N   0  0  0  0  0  0  0  0  0  0  0  0
    3.5247  -12.3292    0.0000 C   0  0  0  0  0  0  0  0  0  0  0  0
   10.5742   -5.8300    0.0000 N   0  0  0  0  0  0  0  0  0  0  0  0
    2.7960  -11.9128    0.0000 C   0  0  0  0  0  0  0  0  0  0  0  0
    4.9525  -13.1621    0.0000 C   0  0  0  0  0  0  0  0  0  0  0  0
   11.9871   -7.4065    0.0000 N   0  0  0  0  0  0  0  0  0  0  0  0
    9.1465   -5.8300    0.0000 C   0  0  0  0  0  0  0  0  0  0  0  0
    7.0495   -6.2167    0.0000 C   0  0  0  0  0  0  0  0  0  0  0  0
    8.4177   -6.2167    0.0000 N   0  0  0  0  0  0  0  0  0  0  0  0
    9.1465   -9.8604    0.0000 C   0  0  0  0  0  0  0  0  0  0  0  0
    7.6890   -2.4986    0.0000 C   0  0  0  0  0  0  0  0  0  0  0  0
    8.4177   -9.4737    0.0000 C   0  0  0  0  0  0  0  0  0  0  0  0
    0.6841  -10.6932    0.0000 C   0  0  0  0  0  0  0  0  0  0  0  0
    9.8455   -6.2167    0.0000 C   0  0  0  0  0  0  0  0  0  0  0  0
   11.3030   -6.2167    0.0000 C   0  0  0  0  0  0  0  0  0  0  0  0
    6.3654   -4.9971    0.0000 C   0  0  0  0  0  0  0  0  0  0  0  0
   11.3030   -9.4737    0.0000 C   0  0  0  0  0  0  0  0  0  0  0  0
    8.4177   -8.6260    0.0000 O   0  0  0  0  0  0  0  0  0  0  0  0
    9.8455  -11.0800    0.0000 C   0  0  0  0  0  0  0  0  0  0  0  0
    3.5247   -5.8300    0.0000 S   0  0  0  0  0  0  0  0  0  0  0  0
    7.0495  -11.9128    0.0000 S   0  0  0  0  0  0  0  0  0  0  0  0
    4.9525   -8.2690    0.0000 S   0  0  0  0  0  0  0  0  0  0  0  0
   11.9871   -9.8604    0.0000 C   0  0  0  0  0  0  0  0  0  0  0  0
   12.7159   -8.6260    0.0000 C   0  0  0  0  0  0  0  0  0  0  0  0
    7.6890   -0.8477    0.0000 C   0  0  0  0  0  0  0  0  0  0  0  0
    8.4177   -4.6105    0.0000 S   0  0  0  0  0  0  0  0  0  0  0  0
   11.3030  -11.0800    0.0000 C   0  0  0  0  0  0  0  0  0  0  0  0
    7.0495   -1.2344    0.0000 C   0  0  0  0  0  0  0  0  0  0  0  0
    2.0970  -10.6932    0.0000 S   0  0  0  0  0  0  0  0  0  0  0  0
    7.0495   -2.0821    0.0000 N   0  0  0  0  0  0  0  0  0  0  0  0
    2.7960   -6.2167    0.0000 C   0  0  0  0  0  0  0  0  0  0  0  0
    7.0495  -11.0800    0.0000 C   0  0  0  0  0  0  0  0  0  0  0  0
    8.4177   -1.2344    0.0000 N   0  0  0  0  0  0  0  0  0  0  0  0
    8.4177   -3.7330    0.0000 C   0  0  0  0  0  0  0  0  0  0  0  0
    4.9525   -7.4065    0.0000 C   0  0  0  0  0  0  0  0  0  0  0  0
    9.1465   -0.8477    0.0000 C   0  0  0  0  0  0  0  0  0  0  0  0
    9.1465  -10.6932    0.0000 C   0  0  0  0  0  0  0  0  0  0  0  0
    7.6890   -8.2690    0.0000 C   0  0  0  0  0  0  0  0  0  0  0  0
   11.9871  -10.6932    0.0000 C   0  0  0  0  0  0  0  0  0  0  0  0
    4.9525   -4.9971    0.0000 C   0  0  0  0  0  0  0  0  0  0  0  0
    9.8455   -1.2344    0.0000 C   0  0  0  0  0  0  0  0  0  0  0  0
    7.6890   -5.8300    0.0000 C   0  0  0  0  0  0  0  0  0  0  0  0
   11.3030   -7.0495    0.0000 C   0  0  0  0  0  0  0  0  0  0  0  0
    2.7960  -11.0800    0.0000 C   0  0  0  0  0  0  0  0  0  0  0  0
    2.0970   -9.8604    0.0000 O   0  0  0  0  0  0  0  0  0  0  0  0
   11.3328   -8.2839    0.0000 O   0  0  0  0  0  0  0  0  0  0  0  0
    5.6218   -4.6105    0.0000 C   0  0  0  0  0  0  0  0  0  0  0  0
    1.3682   -7.0495    0.0000 O   0  0  0  0  0  0  0  0  0  0  0  0
    5.6218   -9.4737    0.0000 O   0  0  0  0  0  0  0  0  0  0  0  0
    3.5247  -13.1621    0.0000 O   0  0  0  0  0  0  0  0  0  0  0  0
    9.1465   -4.9971    0.0000 O   0  0  0  0  0  0  0  0  0  0  0  0
    7.0495   -7.0495    0.0000 O   0  0  0  0  0  0  0  0  0  0  0  0
    7.6890   -9.8604    0.0000 O   0  0  0  0  0  0  0  0  0  0  0  0
   11.9871   -5.8300    0.0000 O   0  0  0  0  0  0  0  0  0  0  0  0
    8.4177   -2.0821    0.0000 O   0  0  0  0  0  0  0  0  0  0  0  0
    7.6890    0.0000    0.0000 O   0  0  0  0  0  0  0  0  0  0  0  0
    0.0000  -11.0800    0.0000 C   0  0  0  0  0  0  0  0  0  0  0  0
    9.8455   -2.0821    0.0000 O   0  0  0  0  0  0  0  0  0  0  0  0
    0.6841   -8.2690    0.0000 C   0  0  0  0  0  0  0  0  0  0  0  0
    9.8455   -7.0495    0.0000 C   0  0  0  0  0  0  0  0  0  0  0  0
    5.6218  -13.5339    0.0000 C   0  0  0  0  0  0  0  0  0  0  0  0
    6.3654   -0.8477    0.0000 C   0  0  0  0  0  0  0  0  0  0  0  0
    9.1465    0.0000    0.0000 C   0  0  0  0  0  0  0  0  0  0  0  0
    9.8455  -11.9128    0.0000 C   0  0  0  0  0  0  0  0  0  0  0  0
    4.2684  -12.7307    0.0000 O   0  0  0  0  0  0  0  0  0  0  0  0
   10.5742   -0.8477    0.0000 N   0  0  0  0  0  0  0  0  0  0  0  0
   13.4149   -8.1947    0.0000 C   0  0  0  0  0  0  0  0  0  0  0  0
   11.3030   -8.8193    0.0000 O   0  0  0  0  0  0  0  0  0  0  0  0
    4.2089  -13.5339    0.0000 C   0  0  0  0  0  0  0  0  0  0  0  0
    6.3654  -13.1621    0.0000 O   0  0  0  0  0  0  0  0  0  0  0  0
    0.0000   -8.6260    0.0000 O   0  0  0  0  0  0  0  0  0  0  0  0
   10.5742  -12.3292    0.0000 O   0  0  0  0  0  0  0  0  0  0  0  0
    7.6890   -7.4065    0.0000 C   0  0  0  0  0  0  0  0  0  0  0  0
    7.6890   -4.9971    0.0000 C   0  0  0  0  0  0  0  0  0  0  0  0
   10.7379   -7.6444    0.0000 C   0  0  0  0  0  0  0  0  0  0  0  0
    0.0000  -11.9128    0.0000 C   0  0  0  0  0  0  0  0  0  0  0  0
   14.1436   -8.6260    0.0000 C   0  0  0  0  0  0  0  0  0  0  0  0
    5.6218  -14.3816    0.0000 C   0  0  0  0  0  0  0  0  0  0  0  0
    0.6841   -7.4065    0.0000 C   0  0  0  0  0  0  0  0  0  0  0  0
    9.1465  -12.3292    0.0000 C   0  0  0  0  0  0  0  0  0  0  0  0
   13.4149   -7.4065    0.0000 C   0  0  0  0  0  0  0  0  0  0  0  0
   14.8724   -8.1947    0.0000 C   0  0  0  0  0  0  0  0  0  0  0  0
  1  2  1  0
  1  4  1  0
  1 10  1  0
  1 72  1  0
  2  5  1  0
  2  9  1  0
  3  8  1  0
  3 17  1  0
  3 37  1  0
  4 11  2  0
  4 52  1  0
  5 48  2  0
  6 11  1  0
  6 29  1  0
  6 63  2  0
  7 28  1  0
  7 12  1  0
  7 64  2  0
  8 12  2  0
  8 53  1  0
  9 15  1  0
  9 67  2  0
 10 40  1  0
 13 15  2  0
 13 18  1  0
 13 54  1  0
 14 19  1  0
 14 43  1  0
 14 66  2  0
 16 23  1  0
 16 49  1  0
 16 31  2  0
 17 34  1  0
 18 20  1  0
 18 70  1  0
 19 30  2  0
 20 28  1  0
 21 29  1  0
 21 24  1  0
 22 26  2  0
 22 36  1  0
 23 42  2  0
 24 25  1  0
 24 91  1  0
 25 33  1  0
 25 77  2  0
 26 45  1  0
 26 61  1  0
 27 56  1  0
 27 55  1  0
 28 81  2  0
 29 80  2  0
 30 48  1  0
 30 58  1  0
 31 51  1  0
 31 59  1  0
 32 38  1  0
 32 56  1  0
 32 78  2  0
 33 45  1  0
 34 36  1  0
 34 82  2  0
 35 46  1  0
 35 47  1  0
 36 76  1  0
 37 93  1  0
 37 97  1  0
 37101  1  0
 38 75  1  0
 39 41  1  0
 39 46  1  0
 39 83  2  0
 40 74  1  0
 40 84  2  0
 41 74  1  0
 42 44  1  0
 42 69  1  0
 43 62  1  0
 43 87  2  0
 44 50  1  0
 44 85  2  0
 45 89  2  0
 46 92  2  0
 47 75  1  0
 47 86  2  0
 48 79  1  0
 49 55  1  0
 49100  1  0
 50 70  1  0
 51 69  2  0
 51 96  1  0
 52 63  1  0
 53 64  1  0
 54 67  1  0
 55 71  1  0
 56 99  1  0
 57 60  1  0
 57 65  1  0
 57 88  2  0
 58 66  1  0
 59 71  2  0
 60 62  1  0
 60 94  2  0
 61 76  1  0
 65 68  1  0
 68 73  1  0
 68 95  2  0
 70105  1  0
 72 79  1  0
 73 90  2  0
 73 98  1  0
 74106  1  0
 75107  1  0
 89108  1  0
 91103  1  0
 91111  1  0
 93102  1  0
 93110  1  0
 96104  1  0
 96112  1  0
 99109  1  0
 99113  1  0
109114  1  0
M  END
>  <Formula>  (557) 
C72H85N19O18S5

>  <FW>  (557) 
1664.8868

>  <DSSTox_CID>  (557) 
20625

>  <NR-AR>  (557) 
0

>  <NR-AR-LBD>  (557) 
0

>  <NR-ER>  (557) 
0

>  <NR-PPAR-gamma>  (557) 
1

>  <NR-AhR>  (557) 
0

>  <SR-ATAD5>  (557) 
1

>  <SR-p53>  (557) 
1

$$$$
NCGC00093976-03
     RDKit          2D

 37 40  0  0  1  0  0  0  0  0999 V2000
    7.8574   -1.4301    0.0000 C   0  0  0  0  0  0  0  0  0  0  0  0
    7.8574   -2.2551    0.0000 C   0  0  0  0  0  0  0  0  0  0  0  0
    7.1503   -1.0136    0.0000 C   0  0  0  0  0  0  0  0  0  0  0  0
    7.1503   -2.6637    0.0000 C   0  0  0  0  0  0  0  0  0  0  0  0
    6.4274   -1.4301    0.0000 C   0  0  0  0  0  0  0  0  0  0  0  0
    6.4274   -2.2551    0.0000 C   0  0  0  0  0  0  0  0  0  0  0  0
    5.7202   -1.0136    0.0000 C   0  0  0  0  0  0  0  0  0  0  0  0
    5.0052   -1.4301    0.0000 C   0  0  0  0  0  0  0  0  0  0  0  0
    5.7202   -2.6637    0.0000 C   0  0  0  0  0  0  0  0  0  0  0  0
    5.0052   -2.2551    0.0000 C   0  0  0  0  0  0  0  0  0  0  0  0
    4.2902   -1.0136    0.0000 C   0  0  0  0  0  0  0  0  0  0  0  0
    3.5673   -1.4301    0.0000 C   0  0  0  0  0  0  0  0  0  0  0  0
    4.2902   -2.6637    0.0000 C   0  0  0  0  0  0  0  0  0  0  0  0
    3.5673   -2.2551    0.0000 C   0  0  0  0  0  0  0  0  0  0  0  0
    5.7202   -0.1886    0.0000 O   0  0  0  0  0  0  0  0  0  0  0  0
    5.7202   -3.4887    0.0000 O   0  0  0  0  0  0  0  0  0  0  0  0
    4.2902   -0.1886    0.0000 O   0  0  0  0  0  0  0  0  0  0  0  0
    4.2902   -3.4887    0.0000 O   0  0  0  0  0  0  0  0  0  0  0  0
    2.8522   -1.0136    0.0000 C   0  0  0  0  0  0  0  0  0  0  0  0
    2.1372   -1.4301    0.0000 C   0  0  0  0  0  0  0  0  0  0  0  0
    2.8522   -2.6637    0.0000 C   0  0  0  0  0  0  0  0  0  0  0  0
    2.1372   -2.2551    0.0000 C   0  0  0  0  0  0  0  0  0  0  0  0
    2.8522   -3.4887    0.0000 O   0  0  0  0  0  0  0  0  0  0  0  0
    1.7286   -0.6993    0.0000 C   0  0  0  0  0  0  0  0  0  0  0  0
    0.9036   -0.6993    0.0000 O   0  0  0  0  0  0  0  0  0  0  0  0
    2.1372    0.0000    0.0000 C   0  0  0  0  0  0  0  0  0  0  0  0
    1.3122   -1.4301    0.0000 O   0  0  0  0  0  0  0  0  0  0  0  0
    2.1372   -3.9051    0.0000 C   0  0  0  0  0  0  0  0  0  0  0  0
    2.1372   -4.7302    0.0000 C   0  0  0  0  0  0  0  0  0  0  0  0
    1.4301   -3.4887    0.0000 O   0  0  0  0  0  0  0  0  0  0  0  0
    1.4301   -5.1387    0.0000 C   0  0  0  0  0  0  0  0  0  0  0  0
    0.7072   -3.9051    0.0000 C   0  0  0  0  0  0  0  0  0  0  0  0
    0.7072   -4.7302    0.0000 C   0  0  0  0  0  0  0  0  0  0  0  0
    0.0000   -3.4887    0.0000 C   0  0  0  0  0  0  0  0  0  0  0  0
    0.0000   -5.1387    0.0000 O   0  0  0  0  0  0  0  0  0  0  0  0
    1.4301   -5.9638    0.0000 N   0  0  0  0  0  0  0  0  0  0  0  0
    3.6615   -4.4395    0.0000 Cl  0  0  0  0  0  0  0  0  0  0  0  0
  1  2  2  0
  1  3  1  0
  2  4  1  0
  3  5  2  0
  4  6  2  0
  5  7  1  0
  5  6  1  0
  6  9  1  0
  7  8  1  0
  7 15  2  0
  8 11  2  0
  8 10  1  0
  9 10  1  0
  9 16  2  0
 10 13  2  0
 11 12  1  0
 11 17  1  0
 12 19  1  0
 12 14  2  0
 13 14  1  0
 13 18  1  0
 14 21  1  0
 19 20  1  0
 20 22  1  0
 20 24  1  0
 20 27  1  1
 21 22  1  0
 21 23  1  1
 28 23  1  1
 24 25  2  0
 24 26  1  0
 28 29  1  0
 28 30  1  0
 29 31  1  0
 30 32  1  0
 31 33  1  0
 31 36  1  6
 32 33  1  0
 32 34  1  6
 33 35  1  6
M  END
>  <Formula>  (558) 
C26H28ClNO9

>  <FW>  (558) 
533.9548 (497.4939+36.4609)

>  <DSSTox_CID>  (558) 
27775

>  <NR-Aromatase>  (558) 
1

>  <NR-AR>  (558) 
0

>  <NR-AR-LBD>  (558) 
1

>  <NR-ER-LBD>  (558) 
1

>  <SR-ATAD5>  (558) 
1

>  <SR-MMP>  (558) 
1

>  <SR-p53>  (558) 
1

$$$$
NCGC00161927-01
     RDKit          2D

 29 33  0  0  1  0  0  0  0  0999 V2000
    2.6999   -1.2403    0.0000 C   0  0  0  0  0  0  0  0  0  0  0  0
    2.6999   -2.0653    0.0000 C   0  0  0  0  0  0  0  0  0  0  0  0
    1.9845   -0.8250    0.0000 C   0  0  0  0  0  0  0  0  0  0  0  0
    1.9845   -2.4749    0.0000 C   0  0  0  0  0  0  0  0  0  0  0  0
    1.2692   -1.2403    0.0000 C   0  0  0  0  0  0  0  0  0  0  0  0
    1.2692   -2.0653    0.0000 C   0  0  0  0  0  0  0  0  0  0  0  0
    3.4153   -0.8250    0.0000 C   0  0  0  0  0  0  0  0  0  0  0  0
    4.1306   -1.2403    0.0000 C   0  0  0  0  0  0  0  0  0  0  0  0
    3.4153   -2.4749    0.0000 C   0  0  0  0  0  0  0  0  0  0  0  0
    4.1306   -2.0653    0.0000 C   0  0  0  0  0  0  0  0  0  0  0  0
    4.9152   -0.9807    0.0000 C   0  0  0  0  0  0  0  0  0  0  0  0
    5.3941   -1.6499    0.0000 O   0  0  0  0  0  0  0  0  0  0  0  0
    4.9152   -2.3134    0.0000 C   0  0  0  0  0  0  0  0  0  0  0  0
    0.4846   -0.9807    0.0000 O   0  0  0  0  0  0  0  0  0  0  0  0
    0.0000   -1.6499    0.0000 C   0  0  0  0  0  0  0  0  0  0  0  0
    0.4846   -2.3134    0.0000 O   0  0  0  0  0  0  0  0  0  0  0  0
    3.4153   -3.2941    0.0000 C   0  0  0  0  0  0  0  0  0  0  0  0
    4.1306   -3.7153    0.0000 C   0  0  0  0  0  0  0  0  0  0  0  0
    2.6999   -3.7153    0.0000 C   0  0  0  0  0  0  0  0  0  0  0  0
    4.1306   -4.5403    0.0000 C   0  0  0  0  0  0  0  0  0  0  0  0
    2.6999   -4.5287    0.0000 C   0  0  0  0  0  0  0  0  0  0  0  0
    3.4153   -4.9441    0.0000 C   0  0  0  0  0  0  0  0  0  0  0  0
    3.4153    0.0000    0.0000 O   0  0  0  0  0  0  0  0  0  0  0  0
    5.1633   -3.0979    0.0000 O   0  0  0  0  0  0  0  0  0  0  0  0
    1.9845   -4.9441    0.0000 O   0  0  0  0  0  0  0  0  0  0  0  0
    1.2692   -4.5287    0.0000 C   0  0  0  0  0  0  0  0  0  0  0  0
    3.4153   -5.7691    0.0000 O   0  0  0  0  0  0  0  0  0  0  0  0
    4.8460   -4.9441    0.0000 O   0  0  0  0  0  0  0  0  0  0  0  0
    5.5498   -4.5403    0.0000 C   0  0  0  0  0  0  0  0  0  0  0  0
  1  3  2  0
  1  7  1  0
  1  2  1  0
  2  4  2  0
  2  9  1  0
  3  5  1  0
  4  6  1  0
  5  6  2  0
  5 14  1  0
  6 16  1  0
  7  8  1  0
  7 23  1  1
  8 11  1  1
  8 10  1  0
  9 10  1  0
  9 17  1  6
 10 13  1  6
 11 12  1  0
 12 13  1  0
 13 24  2  0
 14 15  1  0
 15 16  1  0
 17 18  2  0
 17 19  1  0
 18 20  1  0
 19 21  2  0
 20 22  2  0
 20 28  1  0
 21 22  1  0
 21 25  1  0
 22 27  1  0
 25 26  1  0
 28 29  1  0
M  END
>  <Formula>  (559) 
C21H20O8

>  <FW>  (559) 
400.3787

>  <DSSTox_CID>  (559) 
28668

>  <NR-Aromatase>  (559) 
0

>  <NR-AR>  (559) 
0

>  <NR-ER>  (559) 
0

>  <NR-AhR>  (559) 
1

>  <SR-ATAD5>  (559) 
1

>  <SR-MMP>  (559) 
1

>  <SR-p53>  (559) 
1

$$$$
NCGC00160275-02
     RDKit          2D

 28 32  0  0  0  0  0  0  0  0999 V2000
    1.4281    0.0000    0.0000 C   0  0  0  0  0  0  0  0  0  0  0  0
    1.4281   -0.8263    0.0000 C   0  0  0  0  0  0  0  0  0  0  0  0
    2.1423   -1.2394    0.0000 C   0  0  0  0  0  0  0  0  0  0  0  0
    2.8563   -0.8263    0.0000 C   0  0  0  0  0  0  0  0  0  0  0  0
    3.5755   -1.2394    0.0000 C   0  0  0  0  0  0  0  0  0  0  0  0
    3.5755   -2.0658    0.0000 C   0  0  0  0  0  0  0  0  0  0  0  0
    2.8563   -2.4789    0.0000 C   0  0  0  0  0  0  0  0  0  0  0  0
    2.1423   -2.0658    0.0000 C   0  0  0  0  0  0  0  0  0  0  0  0
    1.4281   -2.4789    0.0000 C   0  0  0  0  0  0  0  0  0  0  0  0
    0.7141   -2.0658    0.0000 C   0  0  0  0  0  0  0  0  0  0  0  0
    0.7141   -1.2394    0.0000 C   0  0  0  0  0  0  0  0  0  0  0  0
    0.0000   -2.4789    0.0000 O   0  0  0  0  0  0  0  0  0  0  0  0
    1.4281   -3.3001    0.0000 C   0  0  0  0  0  0  0  0  0  0  0  0
    0.7141   -3.7132    0.0000 O   0  0  0  0  0  0  0  0  0  0  0  0
    2.1423   -3.7132    0.0000 C   0  0  0  0  0  0  0  0  0  0  0  0
    2.8563   -3.3001    0.0000 C   0  0  0  0  0  0  0  0  0  0  0  0
    3.5755   -3.7132    0.0000 C   0  0  0  0  0  0  0  0  0  0  0  0
    3.5755   -4.5396    0.0000 C   0  0  0  0  0  0  0  0  0  0  0  0
    4.2896   -4.9527    0.0000 O   0  0  0  0  0  0  0  0  0  0  0  0
    2.8563   -4.9527    0.0000 C   0  0  0  0  0  0  0  0  0  0  0  0
    2.1423   -4.5396    0.0000 C   0  0  0  0  0  0  0  0  0  0  0  0
    1.4281   -4.9527    0.0000 O   0  0  0  0  0  0  0  0  0  0  0  0
    4.2896   -3.3001    0.0000 C   0  0  0  0  0  0  0  0  0  0  0  0
    5.0037   -3.7132    0.0000 O   0  0  0  0  0  0  0  0  0  0  0  0
    4.2896   -2.4789    0.0000 C   0  0  0  0  0  0  0  0  0  0  0  0
    4.5702   -1.7036    0.0000 C   0  0  0  0  0  0  0  0  0  0  0  0
    5.1006   -2.6217    0.0000 C   0  0  0  0  0  0  0  0  0  0  0  0
    2.8563    0.0000    0.0000 O   0  0  0  0  0  0  0  0  0  0  0  0
  1  2  1  0
  2  3  2  0
  2 11  1  0
  3  4  1  0
  3  8  1  0
  4  5  2  0
  4 28  1  0
  5  6  1  0
  6  7  2  0
  6 25  1  0
  7  8  1  0
  7 16  1  0
  8  9  2  0
  9 10  1  0
  9 13  1  0
 10 11  2  0
 10 12  1  0
 13 14  2  0
 13 15  1  0
 15 16  2  0
 15 21  1  0
 16 17  1  0
 17 18  2  0
 17 23  1  0
 18 19  1  0
 18 20  1  0
 20 21  2  0
 21 22  1  0
 23 24  2  0
 23 25  1  0
 25 26  1  0
 25 27  1  0
M  END
>  <Formula>  (560) 
C22H16O6

>  <FW>  (560) 
376.3588

>  <DSSTox_CID>  (560) 
26101

>  <NR-Aromatase>  (560) 
0

>  <NR-AR>  (560) 
0

>  <NR-ER-LBD>  (560) 
0

>  <NR-PPAR-gamma>  (560) 
0

>  <NR-AhR>  (560) 
0

>  <SR-ATAD5>  (560) 
0

>  <SR-MMP>  (560) 
1

>  <SR-p53>  (560) 
1

$$$$
NCGC00015619-09
     RDKit          2D

 27 30  0  0  0  0  0  0  0  0999 V2000
    3.1946   -2.8579    0.0000 C   0  0  0  0  0  0  0  0  0  0  0  0
    2.4838   -2.4390    0.0000 C   0  0  0  0  0  0  0  0  0  0  0  0
    2.5362   -1.6309    0.0000 C   0  0  0  0  0  0  0  0  0  0  0  0
    1.9527   -1.0474    0.0000 C   0  0  0  0  0  0  0  0  0  0  0  0
    1.1222   -1.1821    0.0000 C   0  0  0  0  0  0  0  0  0  0  0  0
    0.7107   -1.8928    0.0000 C   0  0  0  0  0  0  0  0  0  0  0  0
    1.0025   -2.6559    0.0000 C   0  0  0  0  0  0  0  0  0  0  0  0
    1.8030   -2.9028    0.0000 C   0  0  0  0  0  0  0  0  0  0  0  0
    1.9751   -3.6958    0.0000 C   0  0  0  0  0  0  0  0  0  0  0  0
    1.3916   -4.2793    0.0000 C   0  0  0  0  0  0  0  0  0  0  0  0
    0.5835   -4.0175    0.0000 C   0  0  0  0  0  0  0  0  0  0  0  0
    0.0000   -4.6011    0.0000 Cl  0  0  0  0  0  0  0  0  0  0  0  0
    0.4190   -3.2319    0.0000 C   0  0  0  0  0  0  0  0  0  0  0  0
    2.1247   -0.2544    0.0000 C   0  0  0  0  0  0  0  0  0  0  0  0
    2.9252    0.0000    0.0000 C   0  0  0  0  0  0  0  0  0  0  0  0
    3.5088   -0.5835    0.0000 C   0  0  0  0  0  0  0  0  0  0  0  0
    3.3293   -1.3766    0.0000 N   0  0  0  0  0  0  0  0  0  0  0  0
    3.9128   -2.4390    0.0000 C   0  0  0  0  0  0  0  0  0  0  0  0
    4.6235   -2.8579    0.0000 C   0  0  0  0  0  0  0  0  0  0  0  0
    4.6235   -3.6809    0.0000 N   0  0  0  0  0  0  0  0  0  0  0  0
    5.3417   -4.0924    0.0000 C   0  0  0  0  0  0  0  0  0  0  0  0
    5.3417   -4.9153    0.0000 O   0  0  0  0  0  0  0  0  0  0  0  0
    6.0525   -3.6809    0.0000 O   0  0  0  0  0  0  0  0  0  0  0  0
    6.7707   -4.0924    0.0000 C   0  0  0  0  0  0  0  0  0  0  0  0
    7.4814   -3.6809    0.0000 C   0  0  0  0  0  0  0  0  0  0  0  0
    3.9128   -4.0924    0.0000 C   0  0  0  0  0  0  0  0  0  0  0  0
    3.1946   -3.6809    0.0000 C   0  0  0  0  0  0  0  0  0  0  0  0
  1  2  2  0
  1 18  1  0
  1 27  1  0
  2  3  1  0
  2  8  1  0
  3  4  2  0
  3 17  1  0
  4  5  1  0
  4 14  1  0
  5  6  1  0
  6  7  1  0
  7  8  2  0
  7 13  1  0
  8  9  1  0
  9 10  2  0
 10 11  1  0
 11 12  1  0
 11 13  2  0
 14 15  2  0
 15 16  1  0
 16 17  2  0
 18 19  1  0
 19 20  1  0
 20 21  1  0
 20 26  1  0
 21 22  2  0
 21 23  1  0
 23 24  1  0
 24 25  1  0
 26 27  1  0
M  END
>  <Formula>  (561) 
C22H23ClN2O2

>  <FW>  (561) 
382.8832

>  <DSSTox_CID>  (561) 
3224

>  <NR-Aromatase>  (561) 
0

>  <NR-AR>  (561) 
0

>  <NR-AR-LBD>  (561) 
0

>  <NR-ER-LBD>  (561) 
0

>  <NR-PPAR-gamma>  (561) 
0

>  <NR-AhR>  (561) 
0

>  <SR-p53>  (561) 
1

$$$$
NCGC00064532-02
     RDKit          2D

 35 38  0  0  1  0  0  0  0  0999 V2000
    3.1350   -4.5336    0.0000 C   0  0  0  0  0  0  0  0  0  0  0  0
    3.1350   -3.7008    0.0000 C   0  0  0  0  0  0  0  0  0  0  0  0
    3.8500   -3.2922    0.0000 N   0  0  0  0  0  0  0  0  0  0  0  0
    3.8500   -4.9343    0.0000 C   0  0  0  0  0  0  0  0  0  0  0  0
    4.5650   -4.5336    0.0000 C   0  0  0  0  0  0  0  0  0  0  0  0
    4.5650   -3.7008    0.0000 C   0  0  0  0  0  0  0  0  0  0  0  0
    5.2721   -3.2922    0.0000 N   0  0  0  0  0  0  0  0  0  0  0  0
    5.9950   -3.7008    0.0000 C   0  0  0  0  0  0  0  0  0  0  0  0
    5.9950   -4.5336    0.0000 C   0  0  0  0  0  0  0  0  0  0  0  0
    5.2721   -4.9343    0.0000 C   0  0  0  0  0  0  0  0  0  0  0  0
    5.2721   -2.4672    0.0000 C   0  0  0  0  0  0  0  0  0  0  0  0
    4.5650   -2.0586    0.0000 C   0  0  0  0  0  0  0  0  0  0  0  0
    4.5650   -1.2257    0.0000 C   0  0  0  0  0  0  0  0  0  0  0  0
    5.2721   -0.8250    0.0000 C   0  0  0  0  0  0  0  0  0  0  0  0
    5.9950   -1.2257    0.0000 C   0  0  0  0  0  0  0  0  0  0  0  0
    5.9950   -2.0586    0.0000 C   0  0  0  0  0  0  0  0  0  0  0  0
    6.7022   -2.4672    0.0000 F   0  0  0  0  0  0  0  0  0  0  0  0
    5.2721    0.0000    0.0000 F   0  0  0  0  0  0  0  0  0  0  0  0
    5.2721   -5.7593    0.0000 O   0  0  0  0  0  0  0  0  0  0  0  0
    6.7022   -4.9343    0.0000 C   0  0  0  0  0  0  0  0  0  0  0  0
    7.4250   -4.5336    0.0000 O   0  0  0  0  0  0  0  0  0  0  0  0
    6.7022   -5.7593    0.0000 O   0  0  0  0  0  0  0  0  0  0  0  0
    2.4357   -4.9343    0.0000 F   0  0  0  0  0  0  0  0  0  0  0  0
    2.4357   -3.2922    0.0000 N   0  0  0  0  0  0  0  0  0  0  0  0
    1.6736   -3.6221    0.0000 C   0  0  0  0  0  0  0  0  0  0  0  0
    2.3336   -2.4750    0.0000 C   0  0  0  0  0  0  0  0  0  0  0  0
    1.5322   -2.2943    0.0000 C   0  0  0  0  0  0  0  0  0  0  0  0
    1.1314   -3.0171    0.0000 C   0  0  0  0  0  0  0  0  0  0  0  0
    0.7229   -2.2943    0.0000 C   0  0  0  0  0  0  0  0  0  0  0  0
    0.0000   -1.8936    0.0000 N   0  0  0  0  0  0  0  0  0  0  0  0
    3.1979   -6.9143    0.0000 S   0  0  0  0  0  0  0  0  0  0  0  0
    3.1979   -7.8571    0.0000 O   0  0  0  0  0  0  0  0  0  0  0  0
    4.0150   -6.9143    0.0000 O   0  0  0  0  0  0  0  0  0  0  0  0
    3.1979   -6.0972    0.0000 O   0  0  0  0  0  0  0  0  0  0  0  0
    2.3336   -6.9143    0.0000 C   0  0  0  0  0  0  0  0  0  0  0  0
  1  4  2  0
  1 23  1  0
  1  2  1  0
  2 24  1  0
  2  3  2  0
  3  6  1  0
  4  5  1  0
  5 10  1  0
  5  6  2  0
  6  7  1  0
  7  8  1  0
  7 11  1  0
  8  9  2  0
  9 20  1  0
  9 10  1  0
 10 19  2  0
 11 16  1  0
 11 12  2  0
 12 13  1  0
 13 14  2  0
 14 18  1  0
 14 15  1  0
 15 16  2  0
 16 17  1  0
 20 21  1  0
 20 22  2  0
 24 25  1  0
 24 26  1  0
 28 25  1  6
 27 26  1  6
 27 28  1  0
 27 29  1  0
 28 29  1  0
 29 30  1  1
 31 32  2  0
 31 33  1  0
 31 34  2  0
 31 35  1  0
M  END
>  <Formula>  (562) 
C21H19F3N4O6S

>  <FW>  (562) 
512.4590 (416.3533+96.1057)

>  <DSSTox_CID>  (562) 
25701

>  <NR-Aromatase>  (562) 
1

>  <NR-AR>  (562) 
0

>  <NR-AR-LBD>  (562) 
1

>  <NR-PPAR-gamma>  (562) 
1

>  <NR-AhR>  (562) 
0

>  <SR-ATAD5>  (562) 
0

>  <SR-p53>  (562) 
1

$$$$
NCGC00095190-01
     RDKit          2D

 44 49  0  0  1  0  0  0  0  0999 V2000
    4.2969   -7.4336    0.0000 Cl  0  0  0  0  0  0  0  0  0  0  0  0
    5.0188   -6.6086    0.0000 C   0  0  0  0  0  0  0  0  0  0  0  0
    4.3055   -6.1961    0.0000 C   0  0  0  0  0  0  0  0  0  0  0  0
    4.3055   -5.3711    0.0000 C   0  0  0  0  0  0  0  0  0  0  0  0
    3.5836   -4.9586    0.0000 C   0  0  0  0  0  0  0  0  0  0  0  0
    2.8016   -5.2078    0.0000 C   0  0  0  0  0  0  0  0  0  0  0  0
    2.3118   -4.5461    0.0000 N   0  0  0  0  0  0  0  0  0  0  0  0
    1.4953   -4.4602    0.0000 C   0  0  0  0  0  0  0  0  0  0  0  0
    1.0054   -5.1219    0.0000 O   0  0  0  0  0  0  0  0  0  0  0  0
    1.1602   -3.7039    0.0000 C   0  0  0  0  0  0  0  0  0  0  0  0
    1.6414   -3.0336    0.0000 C   0  0  0  0  0  0  0  0  0  0  0  0
    2.4664   -3.1196    0.0000 C   0  0  0  0  0  0  0  0  0  0  0  0
    2.8016   -3.8758    0.0000 C   0  0  0  0  0  0  0  0  0  0  0  0
    3.5836   -4.1336    0.0000 C   0  0  0  0  0  0  0  0  0  0  0  0
    4.3055   -3.7125    0.0000 N   0  0  0  0  0  0  0  0  0  0  0  0
    5.0188   -4.1336    0.0000 C   0  0  0  0  0  0  0  0  0  0  0  0
    5.7321   -3.7125    0.0000 C   0  0  0  0  0  0  0  0  0  0  0  0
    6.4454   -4.1336    0.0000 C   0  0  0  0  0  0  0  0  0  0  0  0
    6.4454   -4.9586    0.0000 C   0  0  0  0  0  0  0  0  0  0  0  0
    7.1672   -5.3711    0.0000 O   0  0  0  0  0  0  0  0  0  0  0  0
    7.8805   -4.9586    0.0000 C   0  0  0  0  0  0  0  0  0  0  0  0
    8.5938   -5.3711    0.0000 O   0  0  0  0  0  0  0  0  0  0  0  0
    7.8805   -4.1336    0.0000 N   0  0  0  0  0  0  0  0  0  0  0  0
    7.1672   -3.7125    0.0000 C   0  0  0  0  0  0  0  0  0  0  0  0
    7.1672   -2.8875    0.0000 C   0  0  0  0  0  0  0  0  0  0  0  0
    7.8805   -2.4750    0.0000 C   0  0  0  0  0  0  0  0  0  0  0  0
    8.5938   -2.8875    0.0000 C   0  0  0  0  0  0  0  0  0  0  0  0
    8.5938   -3.7125    0.0000 C   0  0  0  0  0  0  0  0  0  0  0  0
    7.8805   -1.6500    0.0000 N   0  0  0  0  0  0  0  0  0  0  0  0
    7.1672   -1.2375    0.0000 C   0  0  0  0  0  0  0  0  0  0  0  0
    7.1672   -0.4125    0.0000 C   0  0  0  0  0  0  0  0  0  0  0  0
    7.8805    0.0000    0.0000 C   0  0  0  0  0  0  0  0  0  0  0  0
    8.5938   -0.4125    0.0000 C   0  0  0  0  0  0  0  0  0  0  0  0
    8.5938   -1.2375    0.0000 C   0  0  0  0  0  0  0  0  0  0  0  0
    5.7321   -5.3711    0.0000 C   0  0  0  0  0  0  0  0  0  0  0  0
    5.0188   -4.9586    0.0000 C   0  0  0  0  0  0  0  0  0  0  0  0
    1.3062   -2.2774    0.0000 C   0  0  0  0  0  0  0  0  0  0  0  0
    2.1055   -2.0797    0.0000 O   0  0  0  0  0  0  0  0  0  0  0  0
    1.2461   -1.4524    0.0000 C   0  0  0  0  0  0  0  0  0  0  0  0
    0.5070   -1.0914    0.0000 C   0  0  0  0  0  0  0  0  0  0  0  0
    0.4812   -2.1914    0.0000 C   0  0  0  0  0  0  0  0  0  0  0  0
    0.1461   -1.4351    0.0000 O   0  0  0  0  0  0  0  0  0  0  0  0
    0.0000   -2.8617    0.0000 O   0  0  0  0  0  0  0  0  0  0  0  0
    0.3351   -3.6180    0.0000 C   0  0  0  0  0  0  0  0  0  0  0  0
  2  3  1  0
  3  4  1  0
  4  5  2  0
  4 36  1  0
  5  6  1  0
  5 14  1  0
  6  7  1  0
  7  8  1  0
  7 13  1  0
  8  9  2  0
  8 10  1  0
 10 11  2  0
 10 44  1  0
 11 12  1  0
 11 37  1  0
 12 13  2  0
 13 14  1  0
 14 15  2  0
 15 16  1  0
 16 17  1  0
 16 36  2  0
 17 18  2  0
 18 19  1  0
 19 20  1  0
 19 35  2  0
 20 21  1  0
 21 22  2  0
 21 23  1  0
 23 24  1  0
 23 28  1  0
 24 25  1  0
 25 26  1  0
 26 27  1  0
 26 29  1  0
 27 28  1  0
 29 30  1  0
 29 34  1  0
 30 31  1  0
 31 32  1  0
 32 33  1  0
 33 34  1  0
 35 36  1  0
 37 38  1  1
 37 39  1  0
 37 41  1  0
 39 40  1  0
 41 42  2  0
 41 43  1  0
 43 44  1  0
M  END
>  <Formula>  (563) 
C33H39ClN4O6

>  <FW>  (563) 
623.1390 (36.4609+586.6780)

>  <DSSTox_CID>  (563) 
25953

>  <NR-AR>  (563) 
0

>  <NR-AR-LBD>  (563) 
0

>  <NR-ER-LBD>  (563) 
0

>  <NR-AhR>  (563) 
0

>  <SR-ATAD5>  (563) 
0

>  <SR-MMP>  (563) 
1

>  <SR-p53>  (563) 
1

$$$$
NCGC00257389-01
     RDKit          2D

 25 28  0  0  0  0  0  0  0  0999 V2000
    3.7446   -0.2399    0.0000 N   0  0  0  0  0  0  0  0  0  0  0  0
    4.4584   -0.5910    0.0000 C   0  0  0  0  0  0  0  0  0  0  0  0
    4.6281   -1.4042    0.0000 C   0  0  0  0  0  0  0  0  0  0  0  0
    4.1132   -2.0186    0.0000 N   0  0  0  0  0  0  0  0  0  0  0  0
    3.2999   -2.0186    0.0000 C   0  0  0  0  0  0  0  0  0  0  0  0
    2.7909   -1.3633    0.0000 C   0  0  0  0  0  0  0  0  0  0  0  0
    3.0015   -0.5675    0.0000 C   0  0  0  0  0  0  0  0  0  0  0  0
    2.3931    0.0000    0.0000 C   0  0  0  0  0  0  0  0  0  0  0  0
    1.5973   -0.2224    0.0000 C   0  0  0  0  0  0  0  0  0  0  0  0
    1.3925   -1.0181    0.0000 C   0  0  0  0  0  0  0  0  0  0  0  0
    1.9952   -1.5622    0.0000 C   0  0  0  0  0  0  0  0  0  0  0  0
    5.1957   -0.1697    0.0000 N   0  0  0  0  0  0  0  0  0  0  0  0
    5.8334   -0.7548    0.0000 N   0  0  0  0  0  0  0  0  0  0  0  0
    5.4648   -1.5213    0.0000 C   0  0  0  0  0  0  0  0  0  0  0  0
    2.9313   -4.2244    0.0000 C   0  0  0  0  0  0  0  0  0  0  0  0
    2.1063   -4.2244    0.0000 C   0  0  0  0  0  0  0  0  0  0  0  0
    1.6909   -3.5106    0.0000 C   0  0  0  0  0  0  0  0  0  0  0  0
    2.1063   -2.7968    0.0000 C   0  0  0  0  0  0  0  0  0  0  0  0
    2.9313   -2.7968    0.0000 C   0  0  0  0  0  0  0  0  0  0  0  0
    3.3350   -3.5106    0.0000 C   0  0  0  0  0  0  0  0  0  0  0  0
    4.1600   -3.5106    0.0000 Cl  0  0  0  0  0  0  0  0  0  0  0  0
    5.8510   -2.2292    0.0000 C   0  0  0  0  0  0  0  0  0  0  0  0
    0.6085   -1.2521    0.0000 N   0  0  0  0  0  0  0  0  0  0  0  0
    0.0000   -0.6963    0.0000 O   0  0  0  0  0  0  0  0  0  0  0  0
    0.4095   -2.0595    0.0000 O   0  0  0  0  0  0  0  0  0  0  0  0
  1  2  1  0
  1  7  1  0
  2  3  1  0
  2 12  2  0
  3  4  1  0
  3 14  2  0
  4  5  2  0
  5  6  1  0
  5 19  1  0
  6  7  2  0
  6 11  1  0
  7  8  1  0
  8  9  2  0
  9 10  1  0
 10 11  2  0
 10 23  1  0
 12 13  1  0
 13 14  1  0
 14 22  1  0
 15 20  2  0
 15 16  1  0
 16 17  2  0
 17 18  1  0
 18 19  2  0
 19 20  1  0
 20 21  1  0
 23 24  1  0
 23 25  2  0
M  CHG  2  23   1  24  -1
M  END
>  <Formula>  (564) 
C17H12ClN5O2

>  <FW>  (564) 
353.7625

>  <DSSTox_CID>  (564) 
28479

>  <NR-Aromatase>  (564) 
1

>  <NR-AR>  (564) 
0

>  <NR-AR-LBD>  (564) 
0

>  <NR-ER-LBD>  (564) 
1

>  <NR-AhR>  (564) 
1

>  <SR-ARE>  (564) 
1

>  <SR-ATAD5>  (564) 
1

>  <SR-p53>  (564) 
1

$$$$
NCGC00242596-01
     RDKit          2D

 35 37  0  0  1  0  0  0  0  0999 V2000
    2.1521   -4.1326    0.0000 C   0  0  0  0  0  0  0  0  0  0  0  0
    2.1521   -4.9568    0.0000 C   0  0  0  0  0  0  0  0  0  0  0  0
    1.4309   -3.7090    0.0000 C   0  0  0  0  0  0  0  0  0  0  0  0
    1.4309   -5.3689    0.0000 N   0  0  0  0  0  0  0  0  0  0  0  0
    0.7212   -4.1326    0.0000 N   0  0  0  0  0  0  0  0  0  0  0  0
    0.7212   -4.9568    0.0000 C   0  0  0  0  0  0  0  0  0  0  0  0
    2.8619   -3.7090    0.0000 N   0  0  0  0  0  0  0  0  0  0  0  0
    3.5831   -4.1326    0.0000 C   0  0  0  0  0  0  0  0  0  0  0  0
    2.8619   -5.3689    0.0000 N   0  0  0  0  0  0  0  0  0  0  0  0
    3.5831   -4.9568    0.0000 C   0  0  0  0  0  0  0  0  0  0  0  0
    4.3043   -3.7090    0.0000 C   0  0  0  0  0  0  0  0  0  0  0  0
    5.0026   -4.1326    0.0000 C   0  0  0  0  0  0  0  0  0  0  0  0
    5.7238   -3.7090    0.0000 C   0  0  0  0  0  0  0  0  0  0  0  0
    5.7238   -2.8848    0.0000 C   0  0  0  0  0  0  0  0  0  0  0  0
    6.4450   -4.1326    0.0000 C   0  0  0  0  0  0  0  0  0  0  0  0
    6.4450   -2.4841    0.0000 C   0  0  0  0  0  0  0  0  0  0  0  0
    7.1547   -3.7090    0.0000 C   0  0  0  0  0  0  0  0  0  0  0  0
    7.1547   -2.8848    0.0000 C   0  0  0  0  0  0  0  0  0  0  0  0
    7.8759   -2.4841    0.0000 C   0  0  0  0  0  0  0  0  0  0  0  0
    8.5856   -2.8848    0.0000 O   0  0  0  0  0  0  0  0  0  0  0  0
    7.8759   -1.6485    0.0000 N   0  0  0  0  0  0  0  0  0  0  0  0
    8.5856   -1.2363    0.0000 C   0  0  0  0  0  0  0  0  0  0  0  0
    8.5856   -0.4121    0.0000 C   0  0  0  0  0  0  0  0  0  0  0  0
    9.3068    0.0000    0.0000 O   0  0  0  0  0  0  0  0  0  0  0  0
    7.8759    0.0000    0.0000 O   0  0  0  0  0  0  0  0  0  0  0  0
    9.3068   -1.6485    0.0000 C   0  0  0  0  0  0  0  0  0  0  0  0
   10.0281   -1.2363    0.0000 C   0  0  0  0  0  0  0  0  0  0  0  0
   10.7263   -1.6485    0.0000 C   0  0  0  0  0  0  0  0  0  0  0  0
   11.4476   -1.2363    0.0000 O   0  0  0  0  0  0  0  0  0  0  0  0
   10.7263   -2.4841    0.0000 O   0  0  0  0  0  0  0  0  0  0  0  0
    5.0026   -4.9568    0.0000 C   0  0  0  0  0  0  0  0  0  0  0  0
    5.7238   -5.3689    0.0000 C   0  0  0  0  0  0  0  0  0  0  0  0
    5.7238   -6.1931    0.0000 C   0  0  0  0  0  0  0  0  0  0  0  0
    1.4309   -2.8848    0.0000 N   0  0  0  0  0  0  0  0  0  0  0  0
    0.0000   -5.3689    0.0000 N   0  0  0  0  0  0  0  0  0  0  0  0
  1  3  2  0
  1  7  1  0
  1  2  1  0
  2  4  2  0
  2  9  1  0
  3  5  1  0
  3 34  1  0
  4  6  1  0
  5  6  2  0
  6 35  1  0
  7  8  2  0
  8 10  1  0
  8 11  1  0
  9 10  2  0
 11 12  1  0
 12 13  1  0
 12 31  1  0
 13 14  2  0
 13 15  1  0
 14 16  1  0
 15 17  2  0
 16 18  2  0
 17 18  1  0
 18 19  1  0
 19 20  2  0
 19 21  1  0
 21 22  1  0
 22 23  1  0
 22 26  1  6
 23 24  1  0
 23 25  2  0
 26 27  1  0
 27 28  1  0
 28 29  1  0
 28 30  2  0
 31 32  1  0
 32 33  3  0
M  END
>  <Formula>  (565) 
C23H23N7O5

>  <FW>  (565) 
477.4726

>  <DSSTox_CID>  (565) 
28504

>  <NR-Aromatase>  (565) 
0

>  <NR-AR>  (565) 
0

>  <NR-AR-LBD>  (565) 
0

>  <NR-ER>  (565) 
0

>  <NR-ER-LBD>  (565) 
0

>  <SR-MMP>  (565) 
0

>  <SR-p53>  (565) 
1

$$$$
NCGC00255356-01
     RDKit          2D

 35 39  0  0  0  0  0  0  0  0999 V2000
    2.8773   -2.8974    0.0000 C   0  0  0  0  0  0  0  0  0  0  0  0
    2.1630   -2.4949    0.0000 C   0  0  0  0  0  0  0  0  0  0  0  0
    2.8773   -3.7223    0.0000 C   0  0  0  0  0  0  0  0  0  0  0  0
    3.6016   -2.4849    0.0000 C   0  0  0  0  0  0  0  0  0  0  0  0
    2.1630   -4.1449    0.0000 O   0  0  0  0  0  0  0  0  0  0  0  0
    1.4286   -2.8974    0.0000 C   0  0  0  0  0  0  0  0  0  0  0  0
    1.4286   -3.7223    0.0000 C   0  0  0  0  0  0  0  0  0  0  0  0
    4.3058   -2.8873    0.0000 C   0  0  0  0  0  0  0  0  0  0  0  0
    3.6016   -4.1549    0.0000 O   0  0  0  0  0  0  0  0  0  0  0  0
    5.0302   -2.4849    0.0000 C   0  0  0  0  0  0  0  0  0  0  0  0
    3.6016   -1.6600    0.0000 C   0  0  0  0  0  0  0  0  0  0  0  0
    5.7545   -2.8873    0.0000 C   0  0  0  0  0  0  0  0  0  0  0  0
    7.1830   -3.7123    0.0000 C   0  0  0  0  0  0  0  0  0  0  0  0
    7.8973   -4.1348    0.0000 C   0  0  0  0  0  0  0  0  0  0  0  0
    2.1630   -1.6600    0.0000 O   0  0  0  0  0  0  0  0  0  0  0  0
    5.7545   -3.7123    0.0000 C   0  0  0  0  0  0  0  0  0  0  0  0
    6.4587   -2.4849    0.0000 C   0  0  0  0  0  0  0  0  0  0  0  0
    7.1830   -2.8873    0.0000 C   0  0  0  0  0  0  0  0  0  0  0  0
    6.4587   -4.1348    0.0000 C   0  0  0  0  0  0  0  0  0  0  0  0
    8.6318   -3.7123    0.0000 C   0  0  0  0  0  0  0  0  0  0  0  0
    7.8973   -4.9597    0.0000 C   0  0  0  0  0  0  0  0  0  0  0  0
    9.3360   -4.9597    0.0000 C   0  0  0  0  0  0  0  0  0  0  0  0
    8.6318   -5.3722    0.0000 C   0  0  0  0  0  0  0  0  0  0  0  0
    9.3360   -4.1348    0.0000 C   0  0  0  0  0  0  0  0  0  0  0  0
    5.0302   -1.6499    0.0000 O   0  0  0  0  0  0  0  0  0  0  0  0
   10.0603   -5.3823    0.0000 Br  0  0  0  0  0  0  0  0  0  0  0  0
    0.7243   -2.4949    0.0000 C   0  0  0  0  0  0  0  0  0  0  0  0
    0.7243   -4.1449    0.0000 C   0  0  0  0  0  0  0  0  0  0  0  0
    4.3058   -1.2475    0.0000 C   0  0  0  0  0  0  0  0  0  0  0  0
    2.8773   -1.2475    0.0000 C   0  0  0  0  0  0  0  0  0  0  0  0
    0.0000   -2.8974    0.0000 C   0  0  0  0  0  0  0  0  0  0  0  0
    0.0000   -3.7223    0.0000 C   0  0  0  0  0  0  0  0  0  0  0  0
    2.8773   -0.4125    0.0000 C   0  0  0  0  0  0  0  0  0  0  0  0
    4.3058   -0.4125    0.0000 C   0  0  0  0  0  0  0  0  0  0  0  0
    3.6016    0.0000    0.0000 C   0  0  0  0  0  0  0  0  0  0  0  0
  1  2  2  0
  1  3  1  0
  1  4  1  0
  2  6  1  0
  2 15  1  0
  3  5  1  0
  3  9  2  0
  4  8  1  0
  4 11  1  0
  5  7  1  0
  6 27  2  0
  6  7  1  0
  7 28  2  0
  8 10  1  0
 10 12  1  0
 10 25  1  0
 11 29  2  0
 11 30  1  0
 12 16  2  0
 12 17  1  0
 13 18  1  0
 13 14  1  0
 13 19  2  0
 14 20  2  0
 14 21  1  0
 16 19  1  0
 17 18  2  0
 20 24  1  0
 21 23  2  0
 22 23  1  0
 22 26  1  0
 22 24  2  0
 27 31  1  0
 28 32  1  0
 29 34  1  0
 30 33  2  0
 31 32  2  0
 33 35  1  0
 34 35  2  0
M  END
>  <Formula>  (566) 
C30H23BrO4

>  <FW>  (566) 
527.4052

>  <DSSTox_CID>  (566) 
12589

>  <NR-Aromatase>  (566) 
0

>  <NR-AR>  (566) 
0

>  <NR-ER>  (566) 
0

>  <NR-ER-LBD>  (566) 
0

>  <NR-PPAR-gamma>  (566) 
1

>  <NR-AhR>  (566) 
0

>  <SR-ATAD5>  (566) 
0

>  <SR-p53>  (566) 
1

$$$$
NCGC00259453-01
     RDKit          2D

 29 33  0  0  1  0  0  0  0  0999 V2000
    4.9523   -2.7041    0.0000 C   0  0  0  0  0  0  0  0  0  0  0  0
    4.2449   -3.9304    0.0000 C   0  0  0  0  0  0  0  0  0  0  0  0
    3.5374   -3.5059    0.0000 C   0  0  0  0  0  0  0  0  0  0  0  0
    4.9523   -3.5059    0.0000 C   0  0  0  0  0  0  0  0  0  0  0  0
    5.6598   -2.2797    0.0000 C   0  0  0  0  0  0  0  0  0  0  0  0
    2.8378   -3.9304    0.0000 C   0  0  0  0  0  0  0  0  0  0  0  0
    4.2449   -2.2797    0.0000 O   0  0  0  0  0  0  0  0  0  0  0  0
    3.5374   -2.7041    0.0000 C   0  0  0  0  0  0  0  0  0  0  0  0
    2.1303   -3.5059    0.0000 C   0  0  0  0  0  0  0  0  0  0  0  0
    6.9648   -2.1382    0.0000 O   0  0  0  0  0  0  0  0  0  0  0  0
    6.3674   -2.7041    0.0000 C   0  0  0  0  0  0  0  0  0  0  0  0
    5.8407   -1.4857    0.0000 C   0  0  0  0  0  0  0  0  0  0  0  0
    6.6503   -1.4071    0.0000 C   0  0  0  0  0  0  0  0  0  0  0  0
    2.8378   -4.7323    0.0000 C   0  0  0  0  0  0  0  0  0  0  0  0
    2.1303   -2.7041    0.0000 O   0  0  0  0  0  0  0  0  0  0  0  0
    1.4228   -3.9304    0.0000 C   0  0  0  0  0  0  0  0  0  0  0  0
    5.6598   -3.9304    0.0000 C   0  0  0  0  0  0  0  0  0  0  0  0
    2.1303   -5.1568    0.0000 C   0  0  0  0  0  0  0  0  0  0  0  0
    1.4228   -4.7323    0.0000 C   0  0  0  0  0  0  0  0  0  0  0  0
    7.0669   -0.7154    0.0000 C   0  0  0  0  0  0  0  0  0  0  0  0
    2.8378   -2.2797    0.0000 C   0  0  0  0  0  0  0  0  0  0  0  0
    4.2449   -4.7323    0.0000 O   0  0  0  0  0  0  0  0  0  0  0  0
    6.3674   -3.5059    0.0000 C   0  0  0  0  0  0  0  0  0  0  0  0
    6.6424    0.0000    0.0000 C   0  0  0  0  0  0  0  0  0  0  0  0
    2.1303   -5.9664    0.0000 O   0  0  0  0  0  0  0  0  0  0  0  0
    0.7075   -5.1646    0.0000 O   0  0  0  0  0  0  0  0  0  0  0  0
    7.8609   -0.7075    0.0000 C   0  0  0  0  0  0  0  0  0  0  0  0
    0.0000   -4.7401    0.0000 C   0  0  0  0  0  0  0  0  0  0  0  0
    1.4228   -6.3752    0.0000 C   0  0  0  0  0  0  0  0  0  0  0  0
  1  4  2  0
  1  5  1  0
  1  7  1  0
  2  4  1  0
  2 22  2  0
  3  2  1  1
  3  8  1  0
  3  6  1  0
  4 17  1  0
  5 11  2  0
  5 12  1  0
  6 14  2  0
  6  9  1  0
  7  8  1  0
  8 21  1  1
  9 15  1  0
  9 16  2  0
 10 11  1  0
 10 13  1  0
 11 23  1  0
 12 13  1  0
 13 20  1  6
 14 18  1  0
 15 21  1  0
 16 19  1  0
 17 23  2  0
 18 25  1  0
 18 19  2  0
 19 26  1  0
 20 24  2  0
 20 27  1  0
 25 29  1  0
 26 28  1  0
M  END
>  <Formula>  (567) 
C23H22O6

>  <FW>  (567) 
394.4172

>  <DSSTox_CID>  (567) 
1248

>  <NR-AR>  (567) 
0

>  <NR-AR-LBD>  (567) 
0

>  <SR-ARE>  (567) 
1

>  <SR-ATAD5>  (567) 
0

>  <SR-HSE>  (567) 
0

>  <SR-p53>  (567) 
1

$$$$
NCGC00095189-01
     RDKit          2D

 32 35  0  0  1  0  0  0  0  0999 V2000
    8.8095   -2.3521    0.0000 Cl  0  0  0  0  0  0  0  0  0  0  0  0
    7.7876   -0.8105    0.0000 C   0  0  0  0  0  0  0  0  0  0  0  0
    6.9683   -0.8105    0.0000 C   0  0  0  0  0  0  0  0  0  0  0  0
    6.5543   -1.5240    0.0000 C   0  0  0  0  0  0  0  0  0  0  0  0
    6.1402   -0.8105    0.0000 O   0  0  0  0  0  0  0  0  0  0  0  0
    7.2678   -1.9381    0.0000 C   0  0  0  0  0  0  0  0  0  0  0  0
    7.9814   -1.5240    0.0000 O   0  0  0  0  0  0  0  0  0  0  0  0
    7.2678   -2.7574    0.0000 O   0  0  0  0  0  0  0  0  0  0  0  0
    6.5543   -3.1714    0.0000 C   0  0  0  0  0  0  0  0  0  0  0  0
    5.8407   -2.7574    0.0000 C   0  0  0  0  0  0  0  0  0  0  0  0
    5.8407   -1.9381    0.0000 C   0  0  0  0  0  0  0  0  0  0  0  0
    5.1183   -1.5240    0.0000 C   0  0  0  0  0  0  0  0  0  0  0  0
    4.4047   -1.9381    0.0000 C   0  0  0  0  0  0  0  0  0  0  0  0
    4.4047   -2.7574    0.0000 N   0  0  0  0  0  0  0  0  0  0  0  0
    3.6207   -3.0128    0.0000 C   0  0  0  0  0  0  0  0  0  0  0  0
    3.1362   -2.3521    0.0000 C   0  0  0  0  0  0  0  0  0  0  0  0
    3.6207   -1.6826    0.0000 C   0  0  0  0  0  0  0  0  0  0  0  0
    3.2859   -0.9250    0.0000 N   0  0  0  0  0  0  0  0  0  0  0  0
    2.4666   -0.8369    0.0000 C   0  0  0  0  0  0  0  0  0  0  0  0
    2.1319   -0.0881    0.0000 C   0  0  0  0  0  0  0  0  0  0  0  0
    1.3038    0.0000    0.0000 C   0  0  0  0  0  0  0  0  0  0  0  0
    0.8193   -0.6695    0.0000 C   0  0  0  0  0  0  0  0  0  0  0  0
    1.1541   -1.4183    0.0000 C   0  0  0  0  0  0  0  0  0  0  0  0
    0.6695   -2.0879    0.0000 C   0  0  0  0  0  0  0  0  0  0  0  0
    1.0043   -2.8455    0.0000 N   0  0  0  0  0  0  0  0  0  0  0  0
    0.5197   -3.5150    0.0000 C   0  0  0  0  0  0  0  0  0  0  0  0
    1.8324   -2.9336    0.0000 C   0  0  0  0  0  0  0  0  0  0  0  0
    1.9822   -1.5064    0.0000 C   0  0  0  0  0  0  0  0  0  0  0  0
    2.3169   -2.2641    0.0000 C   0  0  0  0  0  0  0  0  0  0  0  0
    0.0000   -0.5814    0.0000 O   0  0  0  0  0  0  0  0  0  0  0  0
    5.1183   -3.1714    0.0000 C   0  0  0  0  0  0  0  0  0  0  0  0
    5.1183   -3.9995    0.0000 O   0  0  0  0  0  0  0  0  0  0  0  0
  2  3  1  0
  3  4  1  0
  4  5  1  6
  4  6  1  0
  4 11  1  0
  6  7  2  0
  6  8  1  0
  8  9  1  0
  9 10  1  0
 10 11  2  0
 10 31  1  0
 11 12  1  0
 12 13  2  0
 13 14  1  0
 13 17  1  0
 14 15  1  0
 14 31  1  0
 15 16  1  0
 16 17  2  0
 16 29  1  0
 17 18  1  0
 18 19  2  0
 19 20  1  0
 19 28  1  0
 20 21  2  0
 21 22  1  0
 22 23  2  0
 22 30  1  0
 23 24  1  0
 23 28  1  0
 24 25  1  0
 25 26  1  0
 25 27  1  0
 28 29  2  0
 31 32  2  0
M  END
>  <Formula>  (568) 
C23H24ClN3O5

>  <FW>  (568) 
457.9068 (36.4609+421.4458)

>  <DSSTox_CID>  (568) 
25952

>  <NR-Aromatase>  (568) 
1

>  <NR-AR>  (568) 
0

>  <NR-ER-LBD>  (568) 
0

>  <NR-AhR>  (568) 
0

>  <SR-ATAD5>  (568) 
0

>  <SR-MMP>  (568) 
0

>  <SR-p53>  (568) 
1

$$$$
NCGC00257235-01
     RDKit          2D

 30 33  0  0  1  0  0  0  0  0999 V2000
    1.9636   -3.4908    0.0000 C   0  0  0  0  0  0  0  0  0  0  0  0
    2.5499   -2.9045    0.0000 C   0  0  0  0  0  0  0  0  0  0  0  0
    1.9636   -4.3158    0.0000 C   0  0  0  0  0  0  0  0  0  0  0  0
    2.5499   -4.8953    0.0000 C   0  0  0  0  0  0  0  0  0  0  0  0
    3.3613   -2.9045    0.0000 C   0  0  0  0  0  0  0  0  0  0  0  0
    3.3613   -4.8953    0.0000 N   0  0  0  0  0  0  0  0  0  0  0  0
    3.9544   -3.4908    0.0000 C   0  0  0  0  0  0  0  0  0  0  0  0
    3.9544   -4.3158    0.0000 C   0  0  0  0  0  0  0  0  0  0  0  0
    4.6703   -3.0749    0.0000 C   0  0  0  0  0  0  0  0  0  0  0  0
    5.3862   -3.4908    0.0000 C   0  0  0  0  0  0  0  0  0  0  0  0
    4.6703   -4.7249    0.0000 C   0  0  0  0  0  0  0  0  0  0  0  0
    5.3862   -4.3158    0.0000 C   0  0  0  0  0  0  0  0  0  0  0  0
    1.2409   -3.8999    0.0000 N   0  0  0  0  0  0  0  0  0  0  0  0
    0.4159   -3.8999    0.0000 C   0  0  0  0  0  0  0  0  0  0  0  0
    0.0000   -3.1840    0.0000 C   0  0  0  0  0  0  0  0  0  0  0  0
    0.0000   -4.6158    0.0000 O   0  0  0  0  0  0  0  0  0  0  0  0
    6.1021   -4.7249    0.0000 C   0  0  0  0  0  0  0  0  0  0  0  0
    6.8180   -4.3158    0.0000 O   0  0  0  0  0  0  0  0  0  0  0  0
    4.6703   -2.2499    0.0000 O   0  0  0  0  0  0  0  0  0  0  0  0
    5.3862   -1.8409    0.0000 C   0  0  0  0  0  0  0  0  0  0  0  0
    3.3613   -3.8181    0.0000 O   0  0  0  0  0  0  0  0  0  0  0  0
    2.2295   -2.1409    0.0000 O   0  0  0  0  0  0  0  0  0  0  0  0
    3.6817   -2.1409    0.0000 C   0  0  0  0  0  0  0  0  0  0  0  0
    3.2658   -1.4318    0.0000 O   0  0  0  0  0  0  0  0  0  0  0  0
    3.6749   -0.7023    0.0000 C   0  0  0  0  0  0  0  0  0  0  0  0
    3.2453    0.0000    0.0000 N   0  0  0  0  0  0  0  0  0  0  0  0
    4.4999   -0.6955    0.0000 O   0  0  0  0  0  0  0  0  0  0  0  0
    1.4045   -2.0317    0.0000 C   0  0  0  0  0  0  0  0  0  0  0  0
    1.0977   -1.2749    0.0000 C   0  0  0  0  0  0  0  0  0  0  0  0
    0.9068   -2.6863    0.0000 O   0  0  0  0  0  0  0  0  0  0  0  0
  1  2  1  0
  1 13  1  6
  1  3  1  0
  2  5  1  0
  2 21  1  0
  2 22  1  1
  3  4  1  6
  3 13  1  0
  4  6  1  0
  5  7  1  0
  5 23  1  1
  6  8  1  0
  6 21  1  0
  7  9  2  0
  7  8  1  0
  8 11  2  0
  9 10  1  0
  9 19  1  0
 10 12  2  0
 11 12  1  0
 12 17  1  0
 13 14  1  0
 14 15  1  0
 14 16  2  0
 17 18  2  0
 19 20  1  0
 22 28  1  0
 23 24  1  0
 24 25  1  0
 25 26  1  0
 25 27  2  0
 28 29  1  0
 28 30  2  0
M  END
>  <Formula>  (569) 
C19H21N3O8

>  <FW>  (569) 
419.3853

>  <DSSTox_CID>  (569) 
28140

>  <NR-AR>  (569) 
0

>  <NR-ER-LBD>  (569) 
0

>  <NR-AhR>  (569) 
0

>  <SR-ATAD5>  (569) 
0

>  <SR-HSE>  (569) 
0

>  <SR-MMP>  (569) 
0

>  <SR-p53>  (569) 
1

$$$$
NCGC00017042-01
     RDKit          2D

 87 96  0  0  0  0  0  0  0  0999 V2000
   14.3748   -5.9309    0.0000 O   0  0  0  0  0  0  0  0  0  0  0  0
   13.5706   -6.0817    0.0000 C   0  0  0  0  0  0  0  0  0  0  0  0
   13.2858   -6.8523    0.0000 O   0  0  0  0  0  0  0  0  0  0  0  0
   13.0345   -5.4450    0.0000 C   0  0  0  0  0  0  0  0  0  0  0  0
   12.2304   -5.5958    0.0000 C   0  0  0  0  0  0  0  0  0  0  0  0
   11.6942   -4.9591    0.0000 C   0  0  0  0  0  0  0  0  0  0  0  0
   10.8900   -5.1099    0.0000 C   0  0  0  0  0  0  0  0  0  0  0  0
   10.3706   -4.4733    0.0000 C   0  0  0  0  0  0  0  0  0  0  0  0
   10.6387   -3.7026    0.0000 C   0  0  0  0  0  0  0  0  0  0  0  0
   11.4596   -3.5686    0.0000 C   0  0  0  0  0  0  0  0  0  0  0  0
   11.9790   -4.1885    0.0000 C   0  0  0  0  0  0  0  0  0  0  0  0
   12.8000   -4.0544    0.0000 C   0  0  0  0  0  0  0  0  0  0  0  0
   12.9843   -2.9989    0.0000 C   0  0  0  0  0  0  0  0  0  0  0  0
   13.9057   -2.4628    0.0000 C   0  0  0  0  0  0  0  0  0  0  0  0
   13.9057   -1.6419    0.0000 C   0  0  0  0  0  0  0  0  0  0  0  0
   13.1853   -1.2230    0.0000 C   0  0  0  0  0  0  0  0  0  0  0  0
   13.1853   -0.4021    0.0000 C   0  0  0  0  0  0  0  0  0  0  0  0
   13.9057    0.0000    0.0000 C   0  0  0  0  0  0  0  0  0  0  0  0
   14.6094   -0.4021    0.0000 C   0  0  0  0  0  0  0  0  0  0  0  0
   14.6094   -1.2230    0.0000 C   0  0  0  0  0  0  0  0  0  0  0  0
   15.3298   -1.6419    0.0000 C   0  0  0  0  0  0  0  0  0  0  0  0
   15.3298   -2.4628    0.0000 C   0  0  0  0  0  0  0  0  0  0  0  0
   16.0335   -2.8649    0.0000 C   0  0  0  0  0  0  0  0  0  0  0  0
   16.7539   -2.4628    0.0000 O   0  0  0  0  0  0  0  0  0  0  0  0
   16.0335   -3.6858    0.0000 O   0  0  0  0  0  0  0  0  0  0  0  0
   14.6094   -2.8649    0.0000 C   0  0  0  0  0  0  0  0  0  0  0  0
   14.7602   -3.6858    0.0000 O   0  0  0  0  0  0  0  0  0  0  0  0
   13.3194   -4.6743    0.0000 C   0  0  0  0  0  0  0  0  0  0  0  0
   14.1403   -4.6743    0.0000 O   0  0  0  0  0  0  0  0  0  0  0  0
    0.0000   -4.4900    0.0000 C   0  0  0  0  0  0  0  0  0  0  0  0
    0.4188   -3.7864    0.0000 N   0  0  0  0  0  0  0  0  0  0  0  0
    0.0000   -3.0659    0.0000 C   0  0  0  0  0  0  0  0  0  0  0  0
    1.2398   -3.7864    0.0000 C   0  0  0  0  0  0  0  0  0  0  0  0
    1.6419   -3.0659    0.0000 C   0  0  0  0  0  0  0  0  0  0  0  0
    2.4628   -3.0659    0.0000 C   0  0  0  0  0  0  0  0  0  0  0  0
    2.8817   -3.7864    0.0000 C   0  0  0  0  0  0  0  0  0  0  0  0
    3.7026   -3.7864    0.0000 N   0  0  0  0  0  0  0  0  0  0  0  0
    4.1047   -3.0659    0.0000 C   0  0  0  0  0  0  0  0  0  0  0  0
    4.1047   -4.4900    0.0000 C   0  0  0  0  0  0  0  0  0  0  0  0
    3.7026   -5.2105    0.0000 C   0  0  0  0  0  0  0  0  0  0  0  0
    2.8817   -5.2105    0.0000 C   0  0  0  0  0  0  0  0  0  0  0  0
    2.4628   -4.4900    0.0000 C   0  0  0  0  0  0  0  0  0  0  0  0
    1.6419   -4.4900    0.0000 C   0  0  0  0  0  0  0  0  0  0  0  0
    4.9424   -4.4900    0.0000 C   0  0  0  0  0  0  0  0  0  0  0  0
    5.3445   -3.7864    0.0000 C   0  0  0  0  0  0  0  0  0  0  0  0
    6.1654   -3.7864    0.0000 C   0  0  0  0  0  0  0  0  0  0  0  0
    6.6513   -4.4565    0.0000 C   0  0  0  0  0  0  0  0  0  0  0  0
    7.4387   -4.1885    0.0000 C   0  0  0  0  0  0  0  0  0  0  0  0
    8.0922   -4.6743    0.0000 C   0  0  0  0  0  0  0  0  0  0  0  0
    7.4387   -3.3675    0.0000 N   0  0  0  0  0  0  0  0  0  0  0  0
    8.0922   -2.8817    0.0000 C   0  0  0  0  0  0  0  0  0  0  0  0
    8.8461   -3.2168    0.0000 C   0  0  0  0  0  0  0  0  0  0  0  0
    9.5162   -2.7477    0.0000 C   0  0  0  0  0  0  0  0  0  0  0  0
    9.4324   -1.9267    0.0000 C   0  0  0  0  0  0  0  0  0  0  0  0
    8.6785   -1.5916    0.0000 C   0  0  0  0  0  0  0  0  0  0  0  0
    8.0083   -2.0775    0.0000 C   0  0  0  0  0  0  0  0  0  0  0  0
    6.6513   -3.1162    0.0000 C   0  0  0  0  0  0  0  0  0  0  0  0
    6.4000   -2.3288    0.0000 C   0  0  0  0  0  0  0  0  0  0  0  0
    0.0000   -8.9298    0.0000 C   0  0  0  0  0  0  0  0  0  0  0  0
    0.4188   -8.2262    0.0000 N   0  0  0  0  0  0  0  0  0  0  0  0
    0.0000   -7.5057    0.0000 C   0  0  0  0  0  0  0  0  0  0  0  0
    1.2398   -8.2262    0.0000 C   0  0  0  0  0  0  0  0  0  0  0  0
    1.6419   -7.5057    0.0000 C   0  0  0  0  0  0  0  0  0  0  0  0
    2.4628   -7.5057    0.0000 C   0  0  0  0  0  0  0  0  0  0  0  0
    2.8817   -8.2262    0.0000 C   0  0  0  0  0  0  0  0  0  0  0  0
    3.7026   -8.2262    0.0000 N   0  0  0  0  0  0  0  0  0  0  0  0
    4.1047   -7.5057    0.0000 C   0  0  0  0  0  0  0  0  0  0  0  0
    4.1047   -8.9298    0.0000 C   0  0  0  0  0  0  0  0  0  0  0  0
    3.7026   -9.6503    0.0000 C   0  0  0  0  0  0  0  0  0  0  0  0
    2.8817   -9.6503    0.0000 C   0  0  0  0  0  0  0  0  0  0  0  0
    2.4628   -8.9298    0.0000 C   0  0  0  0  0  0  0  0  0  0  0  0
    1.6419   -8.9298    0.0000 C   0  0  0  0  0  0  0  0  0  0  0  0
    4.9424   -8.9298    0.0000 C   0  0  0  0  0  0  0  0  0  0  0  0
    5.3445   -8.2262    0.0000 C   0  0  0  0  0  0  0  0  0  0  0  0
    6.1654   -8.2262    0.0000 C   0  0  0  0  0  0  0  0  0  0  0  0
    6.6513   -8.8963    0.0000 C   0  0  0  0  0  0  0  0  0  0  0  0
    7.4387   -8.6450    0.0000 C   0  0  0  0  0  0  0  0  0  0  0  0
    8.0922   -9.1141    0.0000 C   0  0  0  0  0  0  0  0  0  0  0  0
    7.4387   -7.8073    0.0000 N   0  0  0  0  0  0  0  0  0  0  0  0
    8.0922   -7.3382    0.0000 C   0  0  0  0  0  0  0  0  0  0  0  0
    8.8461   -7.6733    0.0000 C   0  0  0  0  0  0  0  0  0  0  0  0
    9.5162   -7.1874    0.0000 C   0  0  0  0  0  0  0  0  0  0  0  0
    9.4324   -6.3665    0.0000 C   0  0  0  0  0  0  0  0  0  0  0  0
    8.6785   -6.0314    0.0000 C   0  0  0  0  0  0  0  0  0  0  0  0
    8.0083   -6.5172    0.0000 C   0  0  0  0  0  0  0  0  0  0  0  0
    6.6513   -7.5560    0.0000 C   0  0  0  0  0  0  0  0  0  0  0  0
    6.4000   -6.7853    0.0000 C   0  0  0  0  0  0  0  0  0  0  0  0
  1  2  1  0
  2  3  2  0
  2  4  1  0
  4  5  2  0
  4 28  1  0
  5  6  1  0
  6  7  2  0
  6 11  1  0
  7  8  1  0
  8  9  2  0
  9 10  1  0
 10 11  2  0
 11 12  1  0
 12 13  1  0
 12 28  2  0
 13 14  1  0
 14 15  1  0
 14 26  2  0
 15 16  2  0
 15 20  1  0
 16 17  1  0
 17 18  2  0
 18 19  1  0
 19 20  2  0
 20 21  1  0
 21 22  2  0
 22 23  1  0
 22 26  1  0
 23 24  1  0
 23 25  2  0
 26 27  1  0
 28 29  1  0
 30 31  1  0
 31 32  1  0
 31 33  1  0
 33 34  2  0
 33 43  1  0
 34 35  1  0
 35 36  2  0
 36 37  1  0
 36 42  1  0
 37 38  1  0
 37 39  2  0
 39 40  1  0
 39 44  1  0
 40 41  2  0
 41 42  1  0
 42 43  2  0
 44 45  2  0
 45 46  1  0
 46 47  1  0
 46 57  2  0
 47 48  2  0
 48 49  1  0
 48 50  1  0
 50 51  1  0
 50 57  1  0
 51 52  2  0
 51 56  1  0
 52 53  1  0
 53 54  2  0
 54 55  1  0
 55 56  2  0
 57 58  1  0
 59 60  1  0
 60 61  1  0
 60 62  1  0
 62 63  2  0
 62 72  1  0
 63 64  1  0
 64 65  2  0
 65 66  1  0
 65 71  1  0
 66 67  1  0
 66 68  2  0
 68 69  1  0
 68 73  1  0
 69 70  2  0
 70 71  1  0
 71 72  2  0
 73 74  2  0
 74 75  1  0
 75 76  1  0
 75 86  2  0
 76 77  2  0
 77 78  1  0
 77 79  1  0
 79 80  1  0
 79 86  1  0
 80 81  2  0
 80 85  1  0
 81 82  1  0
 82 83  2  0
 83 84  1  0
 84 85  2  0
 86 87  1  0
M  CHG  4   1  -1  24  -1  37   1  66   1
M  END
>  <Formula>  (570) 
C75H70N6O6

>  <FW>  (570) 
1151.3949 (386.3548+382.5201+382.5201)

>  <DSSTox_CID>  (570) 
3545

>  <NR-AR>  (570) 
0

>  <NR-AR-LBD>  (570) 
0

>  <NR-ER-LBD>  (570) 
0

>  <NR-PPAR-gamma>  (570) 
0

>  <SR-ATAD5>  (570) 
0

>  <SR-MMP>  (570) 
1

>  <SR-p53>  (570) 
1

$$$$
NCGC00096122-03
     RDKit          2D

 19 21  0  0  1  0  0  0  0  0999 V2000
    0.0000   -3.8699    0.0000 O   0  0  0  0  0  0  0  0  0  0  0  0
    0.6050   -3.3049    0.0000 C   0  0  0  0  0  0  0  0  0  0  0  0
    1.3900   -3.5500    0.0000 C   0  0  0  0  0  0  0  0  0  0  0  0
    2.0550   -3.0550    0.0000 O   0  0  0  0  0  0  0  0  0  0  0  0
    2.7300   -3.5299    0.0000 C   0  0  0  0  0  0  0  0  0  0  0  0
    2.4799   -4.3249    0.0000 C   0  0  0  0  0  0  0  0  0  0  0  0
    2.9650   -4.9900    0.0000 O   0  0  0  0  0  0  0  0  0  0  0  0
    1.6550   -4.3350    0.0000 C   0  0  0  0  0  0  0  0  0  0  0  0
    1.1700   -4.9999    0.0000 O   0  0  0  0  0  0  0  0  0  0  0  0
    2.7000   -2.3099    0.0000 N   0  0  0  0  0  0  0  0  0  0  0  0
    3.1850   -1.6450    0.0000 C   0  0  0  0  0  0  0  0  0  0  0  0
    2.7000   -0.9800    0.0000 N   0  0  0  0  0  0  0  0  0  0  0  0
    1.9150   -1.2400    0.0000 C   0  0  0  0  0  0  0  0  0  0  0  0
    1.9150   -2.0650    0.0000 C   0  0  0  0  0  0  0  0  0  0  0  0
    1.2000   -2.4700    0.0000 N   0  0  0  0  0  0  0  0  0  0  0  0
    0.4850   -2.0650    0.0000 C   0  0  0  0  0  0  0  0  0  0  0  0
    0.4950   -1.2400    0.0000 N   0  0  0  0  0  0  0  0  0  0  0  0
    1.2100   -0.8250    0.0000 C   0  0  0  0  0  0  0  0  0  0  0  0
    1.2000    0.0000    0.0000 S   0  0  0  0  0  0  0  0  0  0  0  0
  1  2  1  0
  3  2  1  1
  3  4  1  0
  3  8  1  0
  4  5  1  0
  5  6  1  0
  5 10  1  1
  6  7  1  6
  6  8  1  0
  8  9  1  6
 10 11  1  0
 10 14  1  0
 11 12  2  0
 12 13  1  0
 13 14  2  0
 13 18  1  0
 14 15  1  0
 15 16  2  0
 16 17  1  0
 17 18  2  0
 18 19  1  0
M  END
>  <Formula>  (571) 
C10H12N4O4S

>  <FW>  (571) 
284.2917

>  <DSSTox_CID>  (571) 
26019

>  <NR-AR>  (571) 
0

>  <NR-AR-LBD>  (571) 
0

>  <NR-ER>  (571) 
0

>  <NR-ER-LBD>  (571) 
0

>  <NR-AhR>  (571) 
1

>  <SR-ATAD5>  (571) 
0

>  <SR-p53>  (571) 
1

$$$$
NCGC00024246-05
     RDKit          2D

 38 42  0  0  1  0  0  0  0  0999 V2000
    2.3886   -5.9401    0.0000 C   0  0  0  0  0  0  0  0  0  0  0  0
    1.8622   -5.3115    0.0000 C   0  0  0  0  0  0  0  0  0  0  0  0
    1.0450   -5.4529    0.0000 O   0  0  0  0  0  0  0  0  0  0  0  0
    2.1450   -4.5336    0.0000 C   0  0  0  0  0  0  0  0  0  0  0  0
    1.3278   -4.3922    0.0000 O   0  0  0  0  0  0  0  0  0  0  0  0
    2.1450   -3.7086    0.0000 C   0  0  0  0  0  0  0  0  0  0  0  0
    2.8600   -3.2922    0.0000 C   0  0  0  0  0  0  0  0  0  0  0  0
    2.8600   -2.4750    0.0000 O   0  0  0  0  0  0  0  0  0  0  0  0
    2.1450   -2.0586    0.0000 C   0  0  0  0  0  0  0  0  0  0  0  0
    1.4300   -2.4750    0.0000 C   0  0  0  0  0  0  0  0  0  0  0  0
    0.7150   -2.0586    0.0000 C   0  0  0  0  0  0  0  0  0  0  0  0
    0.0000   -2.4750    0.0000 N   0  0  0  0  0  0  0  0  0  0  0  0
    0.7150   -1.2336    0.0000 C   0  0  0  0  0  0  0  0  0  0  0  0
    0.0000   -0.8250    0.0000 O   0  0  0  0  0  0  0  0  0  0  0  0
    1.4300   -0.8250    0.0000 C   0  0  0  0  0  0  0  0  0  0  0  0
    1.4300    0.0000    0.0000 C   0  0  0  0  0  0  0  0  0  0  0  0
    2.1450   -1.2336    0.0000 O   0  0  0  0  0  0  0  0  0  0  0  0
    3.5750   -3.7086    0.0000 C   0  0  0  0  0  0  0  0  0  0  0  0
    4.2822   -3.2922    0.0000 C   0  0  0  0  0  0  0  0  0  0  0  0
    4.2822   -2.4750    0.0000 O   0  0  0  0  0  0  0  0  0  0  0  0
    4.9972   -3.7086    0.0000 C   0  0  0  0  0  0  0  0  0  0  0  0
    5.7122   -3.2922    0.0000 C   0  0  0  0  0  0  0  0  0  0  0  0
    5.7122   -2.4750    0.0000 O   0  0  0  0  0  0  0  0  0  0  0  0
    6.4272   -3.7086    0.0000 C   0  0  0  0  0  0  0  0  0  0  0  0
    7.1422   -3.2922    0.0000 C   0  0  0  0  0  0  0  0  0  0  0  0
    7.1422   -2.4750    0.0000 O   0  0  0  0  0  0  0  0  0  0  0  0
    7.8572   -2.0586    0.0000 C   0  0  0  0  0  0  0  0  0  0  0  0
    7.8572   -3.7086    0.0000 C   0  0  0  0  0  0  0  0  0  0  0  0
    7.8572   -4.5336    0.0000 C   0  0  0  0  0  0  0  0  0  0  0  0
    7.1422   -4.9422    0.0000 C   0  0  0  0  0  0  0  0  0  0  0  0
    6.4272   -4.5336    0.0000 C   0  0  0  0  0  0  0  0  0  0  0  0
    5.7122   -4.9422    0.0000 C   0  0  0  0  0  0  0  0  0  0  0  0
    5.7122   -5.7672    0.0000 O   0  0  0  0  0  0  0  0  0  0  0  0
    4.9972   -4.5336    0.0000 C   0  0  0  0  0  0  0  0  0  0  0  0
    4.2822   -4.9422    0.0000 C   0  0  0  0  0  0  0  0  0  0  0  0
    4.2822   -5.7672    0.0000 O   0  0  0  0  0  0  0  0  0  0  0  0
    3.5750   -4.5336    0.0000 C   0  0  0  0  0  0  0  0  0  0  0  0
    2.8600   -4.9422    0.0000 C   0  0  0  0  0  0  0  0  0  0  0  0
  1  2  1  0
  2  3  2  0
  4  2  1  0
  4  5  1  6
  4  6  1  0
  4 38  1  0
  6  7  1  0
  7  8  1  6
  7 18  1  0
  9  8  1  1
  9 10  1  0
  9 17  1  0
 10 11  1  0
 11 12  1  6
 11 13  1  0
 13 14  1  6
 13 15  1  0
 15 16  1  6
 15 17  1  0
 18 19  1  0
 18 37  2  0
 19 20  1  0
 19 21  2  0
 21 22  1  0
 21 34  1  0
 22 23  2  0
 22 24  1  0
 24 25  2  0
 24 31  1  0
 25 26  1  0
 25 28  1  0
 26 27  1  0
 28 29  2  0
 29 30  1  0
 30 31  2  0
 31 32  1  0
 32 33  2  0
 32 34  1  0
 34 35  2  0
 35 36  1  0
 35 37  1  0
 37 38  1  0
M  END
>  <Formula>  (572) 
C27H29NO10

>  <FW>  (572) 
527.5199

>  <DSSTox_CID>  (572) 
2883

>  <NR-Aromatase>  (572) 
1

>  <NR-AR>  (572) 
0

>  <NR-AR-LBD>  (572) 
1

>  <NR-ER>  (572) 
1

>  <NR-ER-LBD>  (572) 
1

>  <SR-ATAD5>  (572) 
1

>  <SR-MMP>  (572) 
1

>  <SR-p53>  (572) 
1

$$$$
NCGC00164738-01
     RDKit          2D

 51 55  0  0  1  0  0  0  0  0999 V2000
    1.4249   -2.8390    0.0000 C   0  0  0  0  0  0  0  0  0  0  0  0
    1.4249   -3.6640    0.0000 C   0  0  0  0  0  0  0  0  0  0  0  0
    0.7071   -2.4212    0.0000 C   0  0  0  0  0  0  0  0  0  0  0  0
    0.7071   -4.0711    0.0000 C   0  0  0  0  0  0  0  0  0  0  0  0
    0.0000   -2.8390    0.0000 C   0  0  0  0  0  0  0  0  0  0  0  0
    0.0000   -3.6640    0.0000 C   0  0  0  0  0  0  0  0  0  0  0  0
    2.1427   -2.4212    0.0000 C   0  0  0  0  0  0  0  0  0  0  0  0
    2.8605   -2.8390    0.0000 C   0  0  0  0  0  0  0  0  0  0  0  0
    2.1427   -4.0711    0.0000 C   0  0  0  0  0  0  0  0  0  0  0  0
    2.8605   -3.6640    0.0000 C   0  0  0  0  0  0  0  0  0  0  0  0
    3.5783   -2.4212    0.0000 C   0  0  0  0  0  0  0  0  0  0  0  0
    4.2854   -2.8390    0.0000 C   0  0  0  0  0  0  0  0  0  0  0  0
    3.5783   -4.0711    0.0000 C   0  0  0  0  0  0  0  0  0  0  0  0
    4.2854   -3.6640    0.0000 C   0  0  0  0  0  0  0  0  0  0  0  0
    5.0139   -2.4212    0.0000 C   0  0  0  0  0  0  0  0  0  0  0  0
    5.7209   -2.8390    0.0000 C   0  0  0  0  0  0  0  0  0  0  0  0
    5.0139   -4.0711    0.0000 C   0  0  0  0  0  0  0  0  0  0  0  0
    5.7209   -3.6640    0.0000 C   0  0  0  0  0  0  0  0  0  0  0  0
    2.1427   -1.5963    0.0000 O   0  0  0  0  0  0  0  0  0  0  0  0
    0.7071   -4.9067    0.0000 O   0  0  0  0  0  0  0  0  0  0  0  0
    0.0000   -5.3138    0.0000 C   0  0  0  0  0  0  0  0  0  0  0  0
    2.1427   -4.9067    0.0000 O   0  0  0  0  0  0  0  0  0  0  0  0
    3.5783   -1.5963    0.0000 O   0  0  0  0  0  0  0  0  0  0  0  0
    3.5783   -4.9067    0.0000 O   0  0  0  0  0  0  0  0  0  0  0  0
    5.0139   -4.9067    0.0000 O   0  0  0  0  0  0  0  0  0  0  0  0
    6.5566   -2.8390    0.0000 C   0  0  0  0  0  0  0  0  0  0  0  0
    6.1281   -2.1105    0.0000 O   0  0  0  0  0  0  0  0  0  0  0  0
    6.9637   -3.5676    0.0000 O   0  0  0  0  0  0  0  0  0  0  0  0
    6.9744   -2.1320    0.0000 C   0  0  0  0  0  0  0  0  0  0  0  0
    7.7993   -2.1320    0.0000 O   0  0  0  0  0  0  0  0  0  0  0  0
    8.2171   -1.4249    0.0000 C   0  0  0  0  0  0  0  0  0  0  0  0
    9.0421   -1.4249    0.0000 C   0  0  0  0  0  0  0  0  0  0  0  0
    7.8101   -0.7071    0.0000 O   0  0  0  0  0  0  0  0  0  0  0  0
    9.4706   -0.7178    0.0000 C   0  0  0  0  0  0  0  0  0  0  0  0
   10.2956   -0.7285    0.0000 C   0  0  0  0  0  0  0  0  0  0  0  0
   10.7134    0.0000    0.0000 C   0  0  0  0  0  0  0  0  0  0  0  0
    5.7209   -5.3245    0.0000 C   0  0  0  0  0  0  0  0  0  0  0  0
    6.4494   -4.9067    0.0000 O   0  0  0  0  0  0  0  0  0  0  0  0
    5.7209   -6.1388    0.0000 C   0  0  0  0  0  0  0  0  0  0  0  0
    7.1565   -5.3245    0.0000 C   0  0  0  0  0  0  0  0  0  0  0  0
    6.4494   -6.5566    0.0000 C   0  0  0  0  0  0  0  0  0  0  0  0
    7.1565   -6.1495    0.0000 C   0  0  0  0  0  0  0  0  0  0  0  0
    7.8851   -6.5566    0.0000 O   0  0  0  0  0  0  0  0  0  0  0  0
    7.8851   -4.9067    0.0000 C   0  0  0  0  0  0  0  0  0  0  0  0
    6.4494   -7.3815    0.0000 N   0  0  0  0  0  0  0  0  0  0  0  0
    5.7316   -7.7993    0.0000 C   0  0  0  0  0  0  0  0  0  0  0  0
    5.0139   -7.3815    0.0000 O   0  0  0  0  0  0  0  0  0  0  0  0
    5.7316   -8.6350    0.0000 C   0  0  0  0  0  0  0  0  0  0  0  0
    4.9067   -8.6350    0.0000 F   0  0  0  0  0  0  0  0  0  0  0  0
    6.5673   -8.6350    0.0000 F   0  0  0  0  0  0  0  0  0  0  0  0
    5.7316   -9.4599    0.0000 F   0  0  0  0  0  0  0  0  0  0  0  0
  1  3  2  0
  1  7  1  0
  1  2  1  0
  2  4  2  0
  2  9  1  0
  3  5  1  0
  4  6  1  0
  4 20  1  0
  5  6  2  0
  7  8  1  0
  7 19  2  0
  8 11  2  0
  8 10  1  0
  9 10  1  0
  9 22  2  0
 10 13  2  0
 11 12  1  0
 11 23  1  0
 12 15  1  0
 12 14  2  0
 13 14  1  0
 13 24  1  0
 14 17  1  0
 15 16  1  0
 16 18  1  0
 16 26  1  0
 16 27  1  6
 17 18  1  0
 17 25  1  6
 20 21  1  0
 37 25  1  6
 26 28  2  0
 26 29  1  0
 29 30  1  0
 30 31  1  0
 31 32  1  0
 31 33  2  0
 32 34  1  0
 34 35  1  0
 35 36  1  0
 37 38  1  0
 37 39  1  0
 38 40  1  0
 39 41  1  0
 40 42  1  0
 40 44  1  1
 41 42  1  0
 41 45  1  1
 42 43  1  1
 45 46  1  0
 46 47  2  0
 46 48  1  0
 48 49  1  0
 48 50  1  0
 48 51  1  0
M  END
>  <Formula>  (573) 
C34H36F3NO13

>  <FW>  (573) 
723.6437

>  <DSSTox_CID>  (573) 
26497

>  <NR-AR>  (573) 
0

>  <NR-AR-LBD>  (573) 
1

>  <NR-PPAR-gamma>  (573) 
0

>  <NR-AhR>  (573) 
0

>  <SR-ATAD5>  (573) 
1

>  <SR-MMP>  (573) 
1

>  <SR-p53>  (573) 
1

$$$$
NCGC00096040-01
     RDKit          2D

108111  0  0  1  0  0  0  0  0999 V2000
   21.3771   -2.4750    0.0000 C   0  0  0  0  0  0  0  0  0  0  0  0
   21.3771   -3.3000    0.0000 C   0  0  0  0  0  0  0  0  0  0  0  0
   20.6734   -2.0625    0.0000 C   0  0  0  0  0  0  0  0  0  0  0  0
   20.6734   -3.7124    0.0000 C   0  0  0  0  0  0  0  0  0  0  0  0
   19.9697   -2.4750    0.0000 O   0  0  0  0  0  0  0  0  0  0  0  0
   19.9697   -3.3000    0.0000 C   0  0  0  0  0  0  0  0  0  0  0  0
   20.6734   -1.2132    0.0000 C   0  0  0  0  0  0  0  0  0  0  0  0
   22.1050   -2.0625    0.0000 O   0  0  0  0  0  0  0  0  0  0  0  0
   22.1050   -3.7124    0.0000 O   0  0  0  0  0  0  0  0  0  0  0  0
   20.6734   -4.5375    0.0000 O   0  0  0  0  0  0  0  0  0  0  0  0
   19.2418   -3.7124    0.0000 O   0  0  0  0  0  0  0  0  0  0  0  0
   21.3771   -0.8250    0.0000 O   0  0  0  0  0  0  0  0  0  0  0  0
   21.3771   -4.9742    0.0000 C   0  0  0  0  0  0  0  0  0  0  0  0
   21.3771   -5.7992    0.0000 C   0  0  0  0  0  0  0  0  0  0  0  0
   22.1050   -4.5375    0.0000 O   0  0  0  0  0  0  0  0  0  0  0  0
   22.1050   -6.2117    0.0000 C   0  0  0  0  0  0  0  0  0  0  0  0
   22.8329   -4.9742    0.0000 C   0  0  0  0  0  0  0  0  0  0  0  0
   22.8329   -5.7992    0.0000 C   0  0  0  0  0  0  0  0  0  0  0  0
   23.5608   -4.5375    0.0000 C   0  0  0  0  0  0  0  0  0  0  0  0
   24.2645   -4.9742    0.0000 O   0  0  0  0  0  0  0  0  0  0  0  0
   23.5608   -6.2117    0.0000 O   0  0  0  0  0  0  0  0  0  0  0  0
   22.1050   -7.0367    0.0000 O   0  0  0  0  0  0  0  0  0  0  0  0
   20.6734   -6.2117    0.0000 O   0  0  0  0  0  0  0  0  0  0  0  0
   21.3771   -7.4735    0.0000 C   0  0  0  0  0  0  0  0  0  0  0  0
   21.3771   -8.2985    0.0000 O   0  0  0  0  0  0  0  0  0  0  0  0
   20.6734   -7.0367    0.0000 N   0  0  0  0  0  0  0  0  0  0  0  0
   18.5138   -3.3000    0.0000 C   0  0  0  0  0  0  0  0  0  0  0  0
   18.5138   -2.4750    0.0000 C   0  0  0  0  0  0  0  0  0  0  0  0
   17.7859   -3.7124    0.0000 C   0  0  0  0  0  0  0  0  0  0  0  0
   17.8344   -2.0139    0.0000 C   0  0  0  0  0  0  0  0  0  0  0  0
   19.1932   -2.0139    0.0000 N   0  0  0  0  0  0  0  0  0  0  0  0
   18.1013   -1.2132    0.0000 N   0  0  0  0  0  0  0  0  0  0  0  0
   18.9264   -1.2132    0.0000 C   0  0  0  0  0  0  0  0  0  0  0  0
   17.0822   -3.3000    0.0000 N   0  0  0  0  0  0  0  0  0  0  0  0
   17.7859   -5.3139    0.0000 C   0  0  0  0  0  0  0  0  0  0  0  0
   18.5138   -5.7264    0.0000 O   0  0  0  0  0  0  0  0  0  0  0  0
   17.0822   -5.7264    0.0000 N   0  0  0  0  0  0  0  0  0  0  0  0
   16.3785   -3.7124    0.0000 C   0  0  0  0  0  0  0  0  0  0  0  0
   15.6506   -3.3000    0.0000 C   0  0  0  0  0  0  0  0  0  0  0  0
   16.3785   -4.5375    0.0000 O   0  0  0  0  0  0  0  0  0  0  0  0
   14.9227   -3.7124    0.0000 C   0  0  0  0  0  0  0  0  0  0  0  0
   15.6506   -2.4750    0.0000 N   0  0  0  0  0  0  0  0  0  0  0  0
   14.2190   -3.3000    0.0000 C   0  0  0  0  0  0  0  0  0  0  0  0
   14.9227   -2.0625    0.0000 C   0  0  0  0  0  0  0  0  0  0  0  0
   14.2190   -2.4750    0.0000 N   0  0  0  0  0  0  0  0  0  0  0  0
   13.4911   -3.7124    0.0000 N   0  0  0  0  0  0  0  0  0  0  0  0
   14.9227   -4.5375    0.0000 C   0  0  0  0  0  0  0  0  0  0  0  0
   14.9227   -1.2132    0.0000 C   0  0  0  0  0  0  0  0  0  0  0  0
   15.6506   -0.8250    0.0000 C   0  0  0  0  0  0  0  0  0  0  0  0
   14.2190   -0.8250    0.0000 N   0  0  0  0  0  0  0  0  0  0  0  0
   13.4911   -1.2132    0.0000 C   0  0  0  0  0  0  0  0  0  0  0  0
   12.7874   -0.8250    0.0000 C   0  0  0  0  0  0  0  0  0  0  0  0
   12.0595   -1.2132    0.0000 C   0  0  0  0  0  0  0  0  0  0  0  0
   12.7874    0.0000    0.0000 N   0  0  0  0  0  0  0  0  0  0  0  0
   11.3315   -0.8250    0.0000 N   0  0  0  0  0  0  0  0  0  0  0  0
   12.0595   -2.0625    0.0000 O   0  0  0  0  0  0  0  0  0  0  0  0
   16.3785   -1.2132    0.0000 C   0  0  0  0  0  0  0  0  0  0  0  0
   17.0822   -0.8250    0.0000 N   0  0  0  0  0  0  0  0  0  0  0  0
   16.3785   -2.0625    0.0000 O   0  0  0  0  0  0  0  0  0  0  0  0
   17.0822   -6.5514    0.0000 C   0  0  0  0  0  0  0  0  0  0  0  0
   16.3785   -6.9639    0.0000 C   0  0  0  0  0  0  0  0  0  0  0  0
   17.7859   -6.9639    0.0000 C   0  0  0  0  0  0  0  0  0  0  0  0
   15.6506   -6.5514    0.0000 C   0  0  0  0  0  0  0  0  0  0  0  0
   16.3785   -7.8132    0.0000 O   0  0  0  0  0  0  0  0  0  0  0  0
   15.6506   -5.7264    0.0000 C   0  0  0  0  0  0  0  0  0  0  0  0
   14.9227   -6.9639    0.0000 C   0  0  0  0  0  0  0  0  0  0  0  0
   14.2190   -6.5514    0.0000 N   0  0  0  0  0  0  0  0  0  0  0  0
   14.9227   -7.8132    0.0000 O   0  0  0  0  0  0  0  0  0  0  0  0
   13.4911   -6.9639    0.0000 C   0  0  0  0  0  0  0  0  0  0  0  0
   12.7874   -6.5514    0.0000 C   0  0  0  0  0  0  0  0  0  0  0  0
   12.0595   -6.9639    0.0000 N   0  0  0  0  0  0  0  0  0  0  0  0
   12.7874   -5.7264    0.0000 O   0  0  0  0  0  0  0  0  0  0  0  0
   13.4911   -7.8132    0.0000 C   0  0  0  0  0  0  0  0  0  0  0  0
   12.7874   -8.2014    0.0000 O   0  0  0  0  0  0  0  0  0  0  0  0
   14.2190   -8.2014    0.0000 C   0  0  0  0  0  0  0  0  0  0  0  0
   11.3315   -6.5514    0.0000 C   0  0  0  0  0  0  0  0  0  0  0  0
   10.6036   -6.9639    0.0000 C   0  0  0  0  0  0  0  0  0  0  0  0
    9.8999   -6.5514    0.0000 C   0  0  0  0  0  0  0  0  0  0  0  0
    9.2205   -7.0367    0.0000 N   0  0  0  0  0  0  0  0  0  0  0  0
    9.6573   -5.7749    0.0000 S   0  0  0  0  0  0  0  0  0  0  0  0
    8.5654   -6.5514    0.0000 C   0  0  0  0  0  0  0  0  0  0  0  0
    8.8080   -5.7749    0.0000 C   0  0  0  0  0  0  0  0  0  0  0  0
    7.7647   -6.7941    0.0000 C   0  0  0  0  0  0  0  0  0  0  0  0
    7.5220   -7.5948    0.0000 S   0  0  0  0  0  0  0  0  0  0  0  0
    7.0852   -6.3330    0.0000 N   0  0  0  0  0  0  0  0  0  0  0  0
    6.6728   -7.5948    0.0000 C   0  0  0  0  0  0  0  0  0  0  0  0
    6.4301   -6.7941    0.0000 C   0  0  0  0  0  0  0  0  0  0  0  0
    5.7264   -6.3816    0.0000 C   0  0  0  0  0  0  0  0  0  0  0  0
    4.9742   -6.7941    0.0000 N   0  0  0  0  0  0  0  0  0  0  0  0
    5.7264   -5.5808    0.0000 O   0  0  0  0  0  0  0  0  0  0  0  0
    4.2705   -6.3816    0.0000 C   0  0  0  0  0  0  0  0  0  0  0  0
    3.5669   -6.7941    0.0000 C   0  0  0  0  0  0  0  0  0  0  0  0
    2.8632   -6.3573    0.0000 C   0  0  0  0  0  0  0  0  0  0  0  0
    2.1353   -6.7698    0.0000 C   0  0  0  0  0  0  0  0  0  0  0  0
    1.4316   -6.3573    0.0000 N   0  0  0  0  0  0  0  0  0  0  0  0
    0.7036   -6.7455    0.0000 C   0  0  0  0  0  0  0  0  0  0  0  0
    0.0000   -6.3330    0.0000 N   0  0  0  0  0  0  0  0  0  0  0  0
    0.7036   -7.5705    0.0000 N   0  0  0  0  0  0  0  0  0  0  0  0
    9.7301  -10.7249    0.0000 S   0  0  0  0  0  0  0  0  0  0  0  0
   10.5551  -10.7249    0.0000 O   0  0  0  0  0  0  0  0  0  0  0  0
    8.9051  -10.7249    0.0000 O   0  0  0  0  0  0  0  0  0  0  0  0
    9.7301  -11.5499    0.0000 O   0  0  0  0  0  0  0  0  0  0  0  0
    9.7301   -9.8999    0.0000 O   0  0  0  0  0  0  0  0  0  0  0  0
   13.1999  -10.6764    0.0000 S   0  0  0  0  0  0  0  0  0  0  0  0
   14.0249  -10.6764    0.0000 O   0  0  0  0  0  0  0  0  0  0  0  0
   12.3749  -10.6764    0.0000 O   0  0  0  0  0  0  0  0  0  0  0  0
   13.1999  -11.5014    0.0000 O   0  0  0  0  0  0  0  0  0  0  0  0
   13.1999   -9.8514    0.0000 O   0  0  0  0  0  0  0  0  0  0  0  0
  1  2  1  0
  1  3  1  0
  1  8  1  1
  2  4  1  0
  2  9  1  6
  3  5  1  0
  3  7  1  1
  4  6  1  0
  4 10  1  6
  5  6  1  0
  6 11  1  6
  7 12  1  0
 13 10  1  1
 27 11  1  6
 13 14  1  0
 13 15  1  0
 14 16  1  0
 14 23  1  6
 15 17  1  0
 16 18  1  0
 16 22  1  6
 17 18  1  0
 17 19  1  6
 18 21  1  1
 19 20  1  0
 22 24  1  0
 24 25  2  0
 24 26  1  0
 27 28  1  0
 27 29  1  0
 28 30  2  0
 28 31  1  0
 29 34  1  1
 29 35  1  0
 30 32  1  0
 31 33  1  0
 32 33  2  0
 34 38  1  0
 35 36  2  0
 35 37  1  0
 60 37  1  0
 38 39  1  0
 38 40  2  0
 39 41  2  0
 39 42  1  0
 41 43  1  0
 41 47  1  0
 42 44  2  0
 43 45  2  0
 43 46  1  0
 44 45  1  0
 48 44  1  0
 48 49  1  1
 48 50  1  0
 49 57  1  0
 50 51  1  0
 51 52  1  0
 52 53  1  0
 52 54  1  1
 53 55  1  0
 53 56  2  0
 57 58  1  0
 57 59  2  0
 60 61  1  0
 60 62  1  6
 61 63  1  0
 61 64  1  1
 63 65  1  1
 63 66  1  0
 66 67  1  0
 66 68  2  0
 69 67  1  1
 69 70  1  0
 69 73  1  0
 70 71  1  0
 70 72  2  0
 71 76  1  0
 73 74  1  0
 73 75  1  1
 76 77  1  0
 77 78  1  0
 78 79  2  0
 78 80  1  0
 79 81  1  0
 80 82  1  0
 81 82  2  0
 81 83  1  0
 83 84  1  0
 83 85  2  0
 84 86  1  0
 85 87  1  0
 86 87  2  0
 87 88  1  0
 88 89  1  0
 88 90  2  0
 89 91  1  0
 91 92  1  0
 92 93  1  0
 93 94  1  0
 94 95  1  0
 95 96  1  0
 96 97  1  0
 96 98  2  0
 99100  2  0
 99101  2  0
 99102  1  0
 99103  1  0
104105  2  0
104106  2  0
104107  1  0
104108  1  0
M  END
>  <Formula>  (574) 
C55H88N20O29S4

>  <FW>  (574) 
1621.6638 (1425.5069+98.0785+98.0785)

>  <DSSTox_CID>  (574) 
27776

>  <NR-AR>  (574) 
1

>  <NR-AR-LBD>  (574) 
0

>  <NR-ER>  (574) 
0

>  <NR-PPAR-gamma>  (574) 
0

>  <SR-ATAD5>  (574) 
0

>  <SR-MMP>  (574) 
0

>  <SR-p53>  (574) 
1

$$$$
NCGC00095258-01
     RDKit          2D

 24 27  0  0  1  0  0  0  0  0999 V2000
    3.4250   -3.4505    0.0000 C   0  0  0  0  0  0  0  0  0  0  0  0
    4.2162   -3.7108    0.0000 C   0  0  0  0  0  0  0  0  0  0  0  0
    2.9401   -4.1243    0.0000 N   0  0  0  0  0  0  0  0  0  0  0  0
    2.1541   -3.0473    0.0000 C   0  0  0  0  0  0  0  0  0  0  0  0
    2.1541   -3.8691    0.0000 C   0  0  0  0  0  0  0  0  0  0  0  0
    2.9401   -2.7819    0.0000 C   0  0  0  0  0  0  0  0  0  0  0  0
    4.8848   -4.1141    0.0000 N   0  0  0  0  0  0  0  0  0  0  0  0
    4.2162   -4.5327    0.0000 C   0  0  0  0  0  0  0  0  0  0  0  0
    1.4445   -2.6339    0.0000 C   0  0  0  0  0  0  0  0  0  0  0  0
    1.4445   -4.2826    0.0000 C   0  0  0  0  0  0  0  0  0  0  0  0
    0.7197   -3.8691    0.0000 C   0  0  0  0  0  0  0  0  0  0  0  0
    0.7197   -3.0473    0.0000 C   0  0  0  0  0  0  0  0  0  0  0  0
    3.4302   -4.7879    0.0000 C   0  0  0  0  0  0  0  0  0  0  0  0
    3.2055   -2.0060    0.0000 C   0  0  0  0  0  0  0  0  0  0  0  0
    2.9095   -0.6125    0.0000 C   0  0  0  0  0  0  0  0  0  0  0  0
    1.4445   -5.1043    0.0000 O   0  0  0  0  0  0  0  0  0  0  0  0
    1.4445   -1.8018    0.0000 O   0  0  0  0  0  0  0  0  0  0  0  0
    2.6594   -1.3935    0.0000 O   0  0  0  0  0  0  0  0  0  0  0  0
    3.8895   -2.7819    0.0000 O   0  0  0  0  0  0  0  0  0  0  0  0
    0.0000   -2.6594    0.0000 N   0  0  0  0  0  0  0  0  0  0  0  0
    3.7211   -0.4441    0.0000 O   0  0  0  0  0  0  0  0  0  0  0  0
    2.3531    0.0000    0.0000 N   0  0  0  0  0  0  0  0  0  0  0  0
    0.0000   -4.2723    0.0000 C   0  0  0  0  0  0  0  0  0  0  0  0
    3.8895   -1.9907    0.0000 C   0  0  0  0  0  0  0  0  0  0  0  0
  1  2  1  0
  1  3  1  0
  1  6  1  0
  1 19  1  6
  2  7  1  1
  2  8  1  0
  3  5  1  0
  3 13  1  0
  4  6  1  0
  4  9  1  0
  4  5  2  0
  5 10  1  0
  6 14  1  1
  7  8  1  0
  8 13  1  1
  9 12  1  0
  9 17  2  0
 10 11  1  0
 10 16  2  0
 11 23  1  0
 11 12  2  0
 12 20  1  0
 14 18  1  0
 15 18  1  0
 15 21  2  0
 15 22  1  0
 19 24  1  0
M  END
>  <Formula>  (575) 
C15H18N4O5

>  <FW>  (575) 
334.3272

>  <DSSTox_CID>  (575) 
898

>  <NR-AR>  (575) 
0

>  <NR-AR-LBD>  (575) 
0

>  <NR-ER-LBD>  (575) 
0

>  <NR-AhR>  (575) 
0

>  <SR-ATAD5>  (575) 
0

>  <SR-MMP>  (575) 
0

>  <SR-p53>  (575) 
1

$$$$
NCGC00016821-01
     RDKit          2D

 42 48  0  0  1  0  0  0  0  0999 V2000
    0.0000   -1.9800    0.0000 C   0  0  0  0  0  0  0  0  0  0  0  0
    0.8250   -1.9800    0.0000 O   0  0  0  0  0  0  0  0  0  0  0  0
    1.2375   -2.6977    0.0000 C   0  0  0  0  0  0  0  0  0  0  0  0
    2.0625   -2.6977    0.0000 C   0  0  0  0  0  0  0  0  0  0  0  0
    2.4749   -3.4072    0.0000 C   0  0  0  0  0  0  0  0  0  0  0  0
    2.0625   -4.1249    0.0000 C   0  0  0  0  0  0  0  0  0  0  0  0
    1.2375   -4.1249    0.0000 C   0  0  0  0  0  0  0  0  0  0  0  0
    0.8250   -4.8427    0.0000 O   0  0  0  0  0  0  0  0  0  0  0  0
    0.0000   -4.8427    0.0000 C   0  0  0  0  0  0  0  0  0  0  0  0
    0.8250   -3.4072    0.0000 C   0  0  0  0  0  0  0  0  0  0  0  0
    0.0000   -3.4072    0.0000 O   0  0  0  0  0  0  0  0  0  0  0  0
    3.2999   -3.4072    0.0000 C   0  0  0  0  0  0  0  0  0  0  0  0
    3.7124   -2.6977    0.0000 C   0  0  0  0  0  0  0  0  0  0  0  0
    3.2999   -1.9800    0.0000 C   0  0  0  0  0  0  0  0  0  0  0  0
    3.7124   -1.2705    0.0000 C   0  0  0  0  0  0  0  0  0  0  0  0
    3.4567   -0.4785    0.0000 O   0  0  0  0  0  0  0  0  0  0  0  0
    4.1249    0.0000    0.0000 C   0  0  0  0  0  0  0  0  0  0  0  0
    4.7932   -0.4785    0.0000 O   0  0  0  0  0  0  0  0  0  0  0  0
    4.5374   -1.2705    0.0000 C   0  0  0  0  0  0  0  0  0  0  0  0
    4.9499   -1.9800    0.0000 C   0  0  0  0  0  0  0  0  0  0  0  0
    4.5374   -2.6977    0.0000 C   0  0  0  0  0  0  0  0  0  0  0  0
    4.9499   -3.4072    0.0000 C   0  0  0  0  0  0  0  0  0  0  0  0
    5.7749   -3.4072    0.0000 O   0  0  0  0  0  0  0  0  0  0  0  0
    6.1874   -4.1249    0.0000 C   0  0  0  0  0  0  0  0  0  0  0  0
    5.7749   -4.8427    0.0000 O   0  0  0  0  0  0  0  0  0  0  0  0
    6.1874   -5.5521    0.0000 C   0  0  0  0  0  0  0  0  0  0  0  0
    5.7749   -6.2699    0.0000 C   0  0  0  0  0  0  0  0  0  0  0  0
    6.1874   -6.9793    0.0000 O   0  0  0  0  0  0  0  0  0  0  0  0
    7.0123   -6.9793    0.0000 C   0  0  0  0  0  0  0  0  0  0  0  0
    7.4249   -7.6971    0.0000 C   0  0  0  0  0  0  0  0  0  0  0  0
    7.4249   -6.2699    0.0000 O   0  0  0  0  0  0  0  0  0  0  0  0
    7.0123   -5.5521    0.0000 C   0  0  0  0  0  0  0  0  0  0  0  0
    7.4249   -4.8427    0.0000 C   0  0  0  0  0  0  0  0  0  0  0  0
    8.2498   -4.8427    0.0000 O   0  0  0  0  0  0  0  0  0  0  0  0
    7.0123   -4.1249    0.0000 C   0  0  0  0  0  0  0  0  0  0  0  0
    7.4249   -3.4072    0.0000 O   0  0  0  0  0  0  0  0  0  0  0  0
    4.5374   -4.1249    0.0000 C   0  0  0  0  0  0  0  0  0  0  0  0
    4.7932   -4.9087    0.0000 C   0  0  0  0  0  0  0  0  0  0  0  0
    4.1249   -5.3954    0.0000 O   0  0  0  0  0  0  0  0  0  0  0  0
    3.4567   -4.9087    0.0000 C   0  0  0  0  0  0  0  0  0  0  0  0
    2.6729   -5.1644    0.0000 O   0  0  0  0  0  0  0  0  0  0  0  0
    3.7124   -4.1249    0.0000 C   0  0  0  0  0  0  0  0  0  0  0  0
  1  2  1  0
  2  3  1  0
  3  4  2  0
  3 10  1  0
  4  5  1  0
  5  6  2  0
 12  5  1  6
  6  7  1  0
  7  8  1  0
  7 10  2  0
  8  9  1  0
 10 11  1  0
 12 13  1  0
 12 42  1  0
 13 14  2  0
 13 21  1  0
 14 15  1  0
 15 16  1  0
 15 19  2  0
 16 17  1  0
 17 18  1  0
 18 19  1  0
 19 20  1  0
 20 21  2  0
 21 22  1  0
 22 23  1  0
 22 37  1  0
 24 23  1  1
 24 25  1  0
 24 35  1  0
 26 25  1  0
 26 27  1  1
 26 32  1  0
 27 28  1  0
 28 29  1  0
 29 30  1  6
 29 31  1  0
 32 31  1  6
 32 33  1  0
 33 34  1  1
 33 35  1  0
 35 36  1  6
 37 38  1  0
 37 42  1  0
 38 39  1  0
 39 40  1  0
 40 41  2  0
 42 40  1  6
M  END
>  <Formula>  (576) 
C29H32O13

>  <FW>  (576) 
588.5566

>  <DSSTox_CID>  (576) 
3035

>  <NR-Aromatase>  (576) 
0

>  <NR-AR>  (576) 
0

>  <NR-AR-LBD>  (576) 
0

>  <NR-ER>  (576) 
0

>  <NR-ER-LBD>  (576) 
0

>  <NR-AhR>  (576) 
0

>  <SR-MMP>  (576) 
0

>  <SR-p53>  (576) 
1

$$$$
NCGC00164553-01
     RDKit          2D

 20 22  0  0  1  0  0  0  0  0999 V2000
    1.4749    0.0000    0.0000 N   0  0  0  0  0  0  0  0  0  0  0  0
    1.4648   -0.8239    0.0000 C   0  0  0  0  0  0  0  0  0  0  0  0
    0.7374   -1.2257    0.0000 N   0  0  0  0  0  0  0  0  0  0  0  0
    0.7273   -2.0496    0.0000 C   0  0  0  0  0  0  0  0  0  0  0  0
    1.4343   -2.4769    0.0000 N   0  0  0  0  0  0  0  0  0  0  0  0
    2.1615   -2.0700    0.0000 C   0  0  0  0  0  0  0  0  0  0  0  0
    2.1717   -1.2461    0.0000 C   0  0  0  0  0  0  0  0  0  0  0  0
    2.9549   -1.0070    0.0000 N   0  0  0  0  0  0  0  0  0  0  0  0
    3.4330   -1.6834    0.0000 C   0  0  0  0  0  0  0  0  0  0  0  0
    2.9346   -2.3396    0.0000 N   0  0  0  0  0  0  0  0  0  0  0  0
    2.8939   -3.6314    0.0000 C   0  0  0  0  0  0  0  0  0  0  0  0
    2.2378   -3.1329    0.0000 O   0  0  0  0  0  0  0  0  0  0  0  0
    1.5614   -3.6110    0.0000 C   0  0  0  0  0  0  0  0  0  0  0  0
    0.7883   -3.3517    0.0000 C   0  0  0  0  0  0  0  0  0  0  0  0
    0.1577   -3.9009    0.0000 O   0  0  0  0  0  0  0  0  0  0  0  0
    1.8004   -4.4095    0.0000 C   0  0  0  0  0  0  0  0  0  0  0  0
    1.3122   -5.0656    0.0000 O   0  0  0  0  0  0  0  0  0  0  0  0
    2.6396   -4.4197    0.0000 C   0  0  0  0  0  0  0  0  0  0  0  0
    3.1075   -5.0859    0.0000 F   0  0  0  0  0  0  0  0  0  0  0  0
    0.0000   -2.4464    0.0000 Cl  0  0  0  0  0  0  0  0  0  0  0  0
  1  2  1  0
  2  3  2  0
  2  7  1  0
  3  4  1  0
  4  5  2  0
  4 20  1  0
  5  6  1  0
  6  7  2  0
  6 10  1  0
  7  8  1  0
  8  9  2  0
  9 10  1  0
 11 10  1  1
 11 12  1  0
 11 18  1  0
 12 13  1  0
 13 14  1  1
 13 16  1  0
 14 15  1  0
 16 17  1  6
 16 18  1  0
 18 19  1  1
M  END
>  <Formula>  (577) 
C10H11ClFN5O3

>  <FW>  (577) 
303.6774

>  <DSSTox_CID>  (577) 
26437

>  <NR-Aromatase>  (577) 
1

>  <NR-AR>  (577) 
0

>  <NR-AR-LBD>  (577) 
0

>  <NR-ER>  (577) 
0

>  <NR-ER-LBD>  (577) 
0

>  <NR-AhR>  (577) 
0

>  <SR-MMP>  (577) 
0

>  <SR-p53>  (577) 
1

$$$$
NCGC00163424-01
     RDKit          2D

 42 43  0  0  1  0  0  0  0  0999 V2000
    3.5597   -3.9264    0.0000 N   0  0  0  0  0  0  0  0  0  0  0  0
    4.2855   -4.3236    0.0000 C   0  0  0  0  0  0  0  0  0  0  0  0
    5.0035   -3.9264    0.0000 C   0  0  0  0  0  0  0  0  0  0  0  0
    5.7292   -4.3236    0.0000 C   0  0  0  0  0  0  0  0  0  0  0  0
    6.4244   -3.9264    0.0000 C   0  0  0  0  0  0  0  0  0  0  0  0
    6.4244   -3.0938    0.0000 C   0  0  0  0  0  0  0  0  0  0  0  0
    5.7292   -2.6736    0.0000 C   0  0  0  0  0  0  0  0  0  0  0  0
    5.7292   -1.8486    0.0000 C   0  0  0  0  0  0  0  0  0  0  0  0
    5.0035   -1.4208    0.0000 C   0  0  0  0  0  0  0  0  0  0  0  0
    4.2855   -1.8486    0.0000 C   0  0  0  0  0  0  0  0  0  0  0  0
    3.5597   -1.4208    0.0000 C   0  0  0  0  0  0  0  0  0  0  0  0
    2.8570   -1.8486    0.0000 C   0  0  0  0  0  0  0  0  0  0  0  0
    1.4208   -1.8486    0.0000 C   0  0  0  0  0  0  0  0  0  0  0  0
    1.4208   -2.6736    0.0000 C   0  0  0  0  0  0  0  0  0  0  0  0
    0.7181   -3.0938    0.0000 C   0  0  0  0  0  0  0  0  0  0  0  0
    0.7181   -3.9264    0.0000 C   0  0  0  0  0  0  0  0  0  0  0  0
    1.4208   -4.3236    0.0000 C   0  0  0  0  0  0  0  0  0  0  0  0
    2.1389   -3.9264    0.0000 C   0  0  0  0  0  0  0  0  0  0  0  0
    2.8570   -4.3236    0.0000 C   0  0  0  0  0  0  0  0  0  0  0  0
    2.8570   -5.1410    0.0000 C   0  0  0  0  0  0  0  0  0  0  0  0
    2.1389   -5.5688    0.0000 C   0  0  0  0  0  0  0  0  0  0  0  0
    1.4208   -5.1410    0.0000 C   0  0  0  0  0  0  0  0  0  0  0  0
    4.2855   -5.1410    0.0000 O   0  0  0  0  0  0  0  0  0  0  0  0
    4.9729   -3.0174    0.0000 C   0  0  0  0  0  0  0  0  0  0  0  0
    6.4549   -2.3299    0.0000 O   0  0  0  0  0  0  0  0  0  0  0  0
    7.0049   -2.9334    0.0000 C   0  0  0  0  0  0  0  0  0  0  0  0
    6.0577   -1.2528    0.0000 O   0  0  0  0  0  0  0  0  0  0  0  0
    6.7757   -0.8250    0.0000 C   0  0  0  0  0  0  0  0  0  0  0  0
    6.7757    0.0000    0.0000 O   0  0  0  0  0  0  0  0  0  0  0  0
    5.0035   -0.6188    0.0000 C   0  0  0  0  0  0  0  0  0  0  0  0
    3.5597   -0.6188    0.0000 C   0  0  0  0  0  0  0  0  0  0  0  0
    2.8570   -2.6736    0.0000 O   0  0  0  0  0  0  0  0  0  0  0  0
    0.7181   -1.4208    0.0000 O   0  0  0  0  0  0  0  0  0  0  0  0
    0.7181   -0.6188    0.0000 C   0  0  0  0  0  0  0  0  0  0  0  0
    0.0000   -2.6736    0.0000 C   0  0  0  0  0  0  0  0  0  0  0  0
    2.1389   -3.0938    0.0000 O   0  0  0  0  0  0  0  0  0  0  0  0
    2.1389   -6.4091    0.0000 O   0  0  0  0  0  0  0  0  0  0  0  0
    0.7181   -5.5612    0.0000 N   0  0  0  0  0  0  0  0  0  0  0  0
    0.7181   -6.3938    0.0000 C   0  0  0  0  0  0  0  0  0  0  0  0
    7.4862   -1.2528    0.0000 N   0  0  0  0  0  0  0  0  0  0  0  0
    0.0000   -6.8140    0.0000 C   0  0  0  0  0  0  0  0  0  0  0  0
    0.0000   -7.6390    0.0000 C   0  0  0  0  0  0  0  0  0  0  0  0
  1 19  1  0
  1  2  1  0
  2  3  1  0
  2 23  2  0
  3  4  2  0
  3 24  1  0
  4  5  1  0
  5  6  2  0
  6  7  1  0
  7 25  1  6
  7  8  1  0
  8  9  1  0
  8 27  1  6
  9 10  2  0
  9 30  1  0
 10 11  1  0
 11 12  1  0
 11 31  1  1
 12 32  1  1
 12 13  1  0
 13 14  1  0
 13 33  1  6
 14 15  1  0
 15 16  1  0
 15 35  1  1
 16 17  1  0
 17 18  1  0
 17 22  2  0
 18 19  1  0
 18 36  2  0
 19 20  2  0
 20 21  1  0
 21 22  1  0
 21 37  2  0
 22 38  1  0
 25 26  1  0
 27 28  1  0
 28 40  1  0
 28 29  2  0
 33 34  1  0
 38 39  1  0
 39 41  1  0
 41 42  2  0
M  END
>  <Formula>  (578) 
C31H43N3O8

>  <FW>  (578) 
585.6884

>  <DSSTox_CID>  (578) 
26352

>  <NR-Aromatase>  (578) 
0

>  <NR-AR>  (578) 
0

>  <NR-AR-LBD>  (578) 
0

>  <NR-ER-LBD>  (578) 
0

>  <NR-PPAR-gamma>  (578) 
0

>  <NR-AhR>  (578) 
0

>  <SR-ATAD5>  (578) 
0

>  <SR-p53>  (578) 
1

$$$$
NCGC00254297-01
     RDKit          2D

 31 35  0  0  1  0  0  0  0  0999 V2000
    7.1530   -2.0516    0.0000 C   0  0  0  0  0  0  0  0  0  0  0  0
    6.4456   -2.4603    0.0000 C   0  0  0  0  0  0  0  0  0  0  0  0
    7.1452   -1.2184    0.0000 C   0  0  0  0  0  0  0  0  0  0  0  0
    7.8605   -1.6271    0.0000 C   0  0  0  0  0  0  0  0  0  0  0  0
    5.7381   -2.0516    0.0000 C   0  0  0  0  0  0  0  0  0  0  0  0
    6.4456   -3.3014    0.0000 C   0  0  0  0  0  0  0  0  0  0  0  0
    6.4456   -0.8096    0.0000 C   0  0  0  0  0  0  0  0  0  0  0  0
    5.0228   -2.4760    0.0000 C   0  0  0  0  0  0  0  0  0  0  0  0
    5.7381   -1.2262    0.0000 N   0  0  0  0  0  0  0  0  0  0  0  0
    5.7381   -3.7180    0.0000 C   0  0  0  0  0  0  0  0  0  0  0  0
    6.4377    0.0000    0.0000 O   0  0  0  0  0  0  0  0  0  0  0  0
    5.0228   -3.3014    0.0000 C   0  0  0  0  0  0  0  0  0  0  0  0
    4.9993   -0.8175    0.0000 C   0  0  0  0  0  0  0  0  0  0  0  0
    5.7381   -4.5276    0.0000 O   0  0  0  0  0  0  0  0  0  0  0  0
    4.3075   -3.7180    0.0000 C   0  0  0  0  0  0  0  0  0  0  0  0
    6.4456   -4.9442    0.0000 C   0  0  0  0  0  0  0  0  0  0  0  0
    3.5844   -3.3014    0.0000 N   0  0  0  0  0  0  0  0  0  0  0  0
    2.8691   -3.6944    0.0000 C   0  0  0  0  0  0  0  0  0  0  0  0
    2.8612   -4.5276    0.0000 C   0  0  0  0  0  0  0  0  0  0  0  0
    2.1538   -3.2779    0.0000 C   0  0  0  0  0  0  0  0  0  0  0  0
    3.5844   -4.9442    0.0000 C   0  0  0  0  0  0  0  0  0  0  0  0
    2.1380   -4.9364    0.0000 N   0  0  0  0  0  0  0  0  0  0  0  0
    1.4385   -3.6866    0.0000 C   0  0  0  0  0  0  0  0  0  0  0  0
    3.5844   -5.7617    0.0000 C   0  0  0  0  0  0  0  0  0  0  0  0
    4.2919   -4.5276    0.0000 C   0  0  0  0  0  0  0  0  0  0  0  0
    1.4542   -4.4726    0.0000 C   0  0  0  0  0  0  0  0  0  0  0  0
    4.2840   -6.1783    0.0000 C   0  0  0  0  0  0  0  0  0  0  0  0
    4.9993   -4.9442    0.0000 C   0  0  0  0  0  0  0  0  0  0  0  0
    0.7153   -4.9207    0.0000 C   0  0  0  0  0  0  0  0  0  0  0  0
    4.9914   -5.7696    0.0000 C   0  0  0  0  0  0  0  0  0  0  0  0
    0.0000   -4.5041    0.0000 C   0  0  0  0  0  0  0  0  0  0  0  0
  1  2  1  0
  1  3  1  0
  1  4  1  6
  2  5  2  0
  2  6  1  0
  3  7  1  0
  3  4  1  6
  5  8  1  0
  5  9  1  0
  6 10  2  0
  7 11  2  0
  7  9  1  0
  8 12  2  0
  9 13  1  0
 10 14  1  0
 10 12  1  0
 12 15  1  0
 14 16  1  0
 15 17  1  0
 18 17  1  6
 18 19  1  0
 18 20  1  0
 19 21  1  0
 19 22  1  6
 20 23  1  0
 21 24  2  0
 21 25  1  0
 22 26  1  0
 23 26  1  0
 24 27  1  0
 25 28  2  0
 26 29  1  1
 27 30  2  0
 28 30  1  0
 29 31  1  0
M  END
>  <Formula>  (579) 
C26H33N3O2

>  <FW>  (579) 
419.5591

>  <DSSTox_CID>  (579) 
27283

>  <NR-AR>  (579) 
0

>  <NR-ER-LBD>  (579) 
0

>  <NR-AhR>  (579) 
0

>  <SR-ARE>  (579) 
0

>  <SR-HSE>  (579) 
0

>  <SR-MMP>  (579) 
0

>  <SR-p53>  (579) 
1

$$$$
NCGC00182036-01
     RDKit          2D

107112  0  0  1  0  0  0  0  0999 V2000
    5.8126   -6.4877    0.0000 O   0  0  0  0  0  0  0  0  0  0  0  0
   12.8628   -3.4501    0.0000 C   0  0  0  0  0  0  0  0  0  0  0  0
    5.8126   -5.0439    0.0000 C   0  0  0  0  0  0  0  0  0  0  0  0
   13.5379   -4.7626    0.0000 N   0  0  0  0  0  0  0  0  0  0  0  0
   13.2753   -5.5501    0.0000 C   0  0  0  0  0  0  0  0  0  0  0  0
   12.8628   -4.2751    0.0000 C   0  0  0  0  0  0  0  0  0  0  0  0
    3.3188   -3.6188    0.0000 N   0  0  0  0  0  0  0  0  0  0  0  0
    3.7314   -4.3314    0.0000 C   0  0  0  0  0  0  0  0  0  0  0  0
    2.0813   -4.3314    0.0000 N   0  0  0  0  0  0  0  0  0  0  0  0
    6.2252   -5.7751    0.0000 C   0  0  0  0  0  0  0  0  0  0  0  0
   12.1878   -2.9626    0.0000 N   0  0  0  0  0  0  0  0  0  0  0  0
    2.4938   -3.6188    0.0000 C   0  0  0  0  0  0  0  0  0  0  0  0
    3.3188   -5.0439    0.0000 C   0  0  0  0  0  0  0  0  0  0  0  0
    4.5564   -4.3314    0.0000 C   0  0  0  0  0  0  0  0  0  0  0  0
    8.2877   -2.1750    0.0000 C   0  0  0  0  0  0  0  0  0  0  0  0
    6.2252   -4.3314    0.0000 C   0  0  0  0  0  0  0  0  0  0  0  0
    4.9876   -5.0439    0.0000 N   0  0  0  0  0  0  0  0  0  0  0  0
    2.4938   -5.0439    0.0000 C   0  0  0  0  0  0  0  0  0  0  0  0
    8.7190   -1.4626    0.0000 N   0  0  0  0  0  0  0  0  0  0  0  0
    9.5440   -1.4626    0.0000 C   0  0  0  0  0  0  0  0  0  0  0  0
    7.4627   -2.1750    0.0000 C   0  0  0  0  0  0  0  0  0  0  0  0
    7.0502   -5.7751    0.0000 C   0  0  0  0  0  0  0  0  0  0  0  0
   12.1878   -4.7626    0.0000 S   0  0  0  0  0  0  0  0  0  0  0  0
   12.4503   -5.5501    0.0000 C   0  0  0  0  0  0  0  0  0  0  0  0
    7.0502   -4.3314    0.0000 N   0  0  0  0  0  0  0  0  0  0  0  0
   12.4503   -2.1750    0.0000 C   0  0  0  0  0  0  0  0  0  0  0  0
   13.5379   -2.9626    0.0000 C   0  0  0  0  0  0  0  0  0  0  0  0
   13.7629   -6.2252    0.0000 C   0  0  0  0  0  0  0  0  0  0  0  0
    7.5565   -5.1001    0.0000 N   0  0  0  0  0  0  0  0  0  0  0  0
    9.9565   -0.7500    0.0000 C   0  0  0  0  0  0  0  0  0  0  0  0
   13.2753   -2.1750    0.0000 S   0  0  0  0  0  0  0  0  0  0  0  0
    1.2563   -2.8876    0.0000 C   0  0  0  0  0  0  0  0  0  0  0  0
    7.0502   -2.8876    0.0000 C   0  0  0  0  0  0  0  0  0  0  0  0
    4.5564   -1.4626    0.0000 C   0  0  0  0  0  0  0  0  0  0  0  0
    2.0813   -2.8876    0.0000 C   0  0  0  0  0  0  0  0  0  0  0  0
    3.7314   -1.4626    0.0000 C   0  0  0  0  0  0  0  0  0  0  0  0
    7.4627   -3.6188    0.0000 C   0  0  0  0  0  0  0  0  0  0  0  0
    0.8250   -2.1750    0.0000 C   0  0  0  0  0  0  0  0  0  0  0  0
    8.3252   -6.1877    0.0000 N   0  0  0  0  0  0  0  0  0  0  0  0
    8.3252   -5.3439    0.0000 C   0  0  0  0  0  0  0  0  0  0  0  0
    2.4938   -2.1750    0.0000 N   0  0  0  0  0  0  0  0  0  0  0  0
    7.5565   -6.4314    0.0000 C   0  0  0  0  0  0  0  0  0  0  0  0
    8.7190   -2.8876    0.0000 O   0  0  0  0  0  0  0  0  0  0  0  0
    5.8126   -3.6188    0.0000 O   0  0  0  0  0  0  0  0  0  0  0  0
    4.9876   -3.6188    0.0000 O   0  0  0  0  0  0  0  0  0  0  0  0
    3.3188   -2.1750    0.0000 C   0  0  0  0  0  0  0  0  0  0  0  0
   12.0378   -1.4626    0.0000 C   0  0  0  0  0  0  0  0  0  0  0  0
   14.5879   -6.2252    0.0000 O   0  0  0  0  0  0  0  0  0  0  0  0
    9.5440    0.0000    0.0000 O   0  0  0  0  0  0  0  0  0  0  0  0
    4.9876   -0.7500    0.0000 O   0  0  0  0  0  0  0  0  0  0  0  0
    9.9565   -2.1750    0.0000 C   0  0  0  0  0  0  0  0  0  0  0  0
    1.2563   -1.4626    0.0000 O   0  0  0  0  0  0  0  0  0  0  0  0
    2.0813   -5.7751    0.0000 N   0  0  0  0  0  0  0  0  0  0  0  0
   10.8003   -0.7500    0.0000 N   0  0  0  0  0  0  0  0  0  0  0  0
   13.3504   -6.9189    0.0000 N   0  0  0  0  0  0  0  0  0  0  0  0
    4.9876   -2.1750    0.0000 N   0  0  0  0  0  0  0  0  0  0  0  0
    3.3188   -0.7500    0.0000 N   0  0  0  0  0  0  0  0  0  0  0  0
    0.0000   -2.1750    0.0000 N   0  0  0  0  0  0  0  0  0  0  0  0
   11.1941   -1.4626    0.0000 C   0  0  0  0  0  0  0  0  0  0  0  0
    6.2252   -2.8876    0.0000 O   0  0  0  0  0  0  0  0  0  0  0  0
   15.8442   -6.9189    0.0000 N   0  0  0  0  0  0  0  0  0  0  0  0
    3.7314   -5.7751    0.0000 C   0  0  0  0  0  0  0  0  0  0  0  0
    7.0502   -1.4626    0.0000 C   0  0  0  0  0  0  0  0  0  0  0  0
    9.5440   -2.8876    0.0000 O   0  0  0  0  0  0  0  0  0  0  0  0
   14.5879   -7.6502    0.0000 C   0  0  0  0  0  0  0  0  0  0  0  0
    8.2877   -3.6188    0.0000 C   0  0  0  0  0  0  0  0  0  0  0  0
   13.7629   -7.6502    0.0000 C   0  0  0  0  0  0  0  0  0  0  0  0
   15.0004   -6.9189    0.0000 C   0  0  0  0  0  0  0  0  0  0  0  0
   10.8003   -2.1750    0.0000 C   0  0  0  0  0  0  0  0  0  0  0  0
   16.2567   -6.2064    0.0000 C   0  0  0  0  0  0  0  0  0  0  0  0
   17.0817   -6.2064    0.0000 C   0  0  0  0  0  0  0  0  0  0  0  0
   17.4942   -5.4939    0.0000 C   0  0  0  0  0  0  0  0  0  0  0  0
   17.4942   -6.9189    0.0000 C   0  0  0  0  0  0  0  0  0  0  0  0
   18.3380   -5.4939    0.0000 C   0  0  0  0  0  0  0  0  0  0  0  0
   18.3380   -6.9189    0.0000 C   0  0  0  0  0  0  0  0  0  0  0  0
   18.7505   -6.2064    0.0000 C   0  0  0  0  0  0  0  0  0  0  0  0
   15.8442   -5.4939    0.0000 C   0  0  0  0  0  0  0  0  0  0  0  0
    5.1001   -6.9002    0.0000 C   0  0  0  0  0  0  0  0  0  0  0  0
    5.1001   -7.7252    0.0000 C   0  0  0  0  0  0  0  0  0  0  0  0
    4.3689   -6.4877    0.0000 O   0  0  0  0  0  0  0  0  0  0  0  0
    4.3689   -8.1377    0.0000 C   0  0  0  0  0  0  0  0  0  0  0  0
    3.6564   -6.9002    0.0000 C   0  0  0  0  0  0  0  0  0  0  0  0
    3.6564   -7.7252    0.0000 C   0  0  0  0  0  0  0  0  0  0  0  0
    5.8501   -8.1190    0.0000 O   0  0  0  0  0  0  0  0  0  0  0  0
    4.3689   -8.9627    0.0000 O   0  0  0  0  0  0  0  0  0  0  0  0
    2.9438   -8.1377    0.0000 O   0  0  0  0  0  0  0  0  0  0  0  0
    2.9438   -6.4877    0.0000 C   0  0  0  0  0  0  0  0  0  0  0  0
    2.2313   -6.9002    0.0000 O   0  0  0  0  0  0  0  0  0  0  0  0
    6.2626   -8.8315    0.0000 C   0  0  0  0  0  0  0  0  0  0  0  0
    5.8501   -9.5628    0.0000 C   0  0  0  0  0  0  0  0  0  0  0  0
    7.0877   -8.8315    0.0000 O   0  0  0  0  0  0  0  0  0  0  0  0
    6.2626  -10.2565    0.0000 C   0  0  0  0  0  0  0  0  0  0  0  0
    7.5002   -9.5628    0.0000 C   0  0  0  0  0  0  0  0  0  0  0  0
    7.0877  -10.2565    0.0000 C   0  0  0  0  0  0  0  0  0  0  0  0
    5.0251   -9.5628    0.0000 O   0  0  0  0  0  0  0  0  0  0  0  0
    5.8501  -10.9878    0.0000 O   0  0  0  0  0  0  0  0  0  0  0  0
    7.5002  -10.9878    0.0000 O   0  0  0  0  0  0  0  0  0  0  0  0
    8.3252   -9.5628    0.0000 C   0  0  0  0  0  0  0  0  0  0  0  0
    8.7377  -10.2565    0.0000 O   0  0  0  0  0  0  0  0  0  0  0  0
    5.0251  -10.9878    0.0000 C   0  0  0  0  0  0  0  0  0  0  0  0
    4.5939  -11.7003    0.0000 O   0  0  0  0  0  0  0  0  0  0  0  0
    4.5939  -10.2565    0.0000 N   0  0  0  0  0  0  0  0  0  0  0  0
    9.5628   -7.3877    0.0000 O   0  0  0  0  0  0  0  0  0  0  0  0
   10.3878   -7.3877    0.0000 S   0  0  0  0  0  0  0  0  0  0  0  0
   10.3878   -6.5627    0.0000 O   0  0  0  0  0  0  0  0  0  0  0  0
   10.3878   -8.2315    0.0000 O   0  0  0  0  0  0  0  0  0  0  0  0
   11.2315   -7.3877    0.0000 O   0  0  0  0  0  0  0  0  0  0  0  0
  1 10  1  0
 78  1  1  1
  2 11  1  0
  2  6  1  0
  2 27  2  0
  3 10  1  0
  3 16  1  0
  3 17  1  0
  4  6  2  0
  4  5  1  0
  5 28  1  0
  5 24  2  0
  6 23  1  0
  7  8  2  0
  7 12  1  0
  8 14  1  0
  8 13  1  0
  9 18  1  0
  9 12  2  0
 10 22  1  0
 11 26  2  0
 12 35  1  0
 13 18  2  0
 13 62  1  0
 14 17  1  0
 14 45  2  0
 15 21  1  0
 15 19  1  0
 15 43  2  0
 16 25  1  0
 16 44  2  0
 18 53  1  0
 19 20  1  0
 20 30  1  0
 20 51  1  0
 21 33  1  0
 21 63  1  0
 22 29  1  0
 22 42  2  0
 23 24  1  0
 25 37  1  0
 26 47  1  0
 26 31  1  0
 27 31  1  0
 28 48  2  0
 28 55  1  0
 29 40  2  0
 30 49  2  0
 30 54  1  0
 32 35  1  0
 32 38  1  0
 33 37  1  0
 33 60  1  0
 34 36  1  0
 34 50  2  0
 34 56  1  0
 35 41  1  0
 36 46  1  0
 36 57  1  0
 37 66  1  0
 38 52  2  0
 38 58  1  0
 39 42  1  0
 39 40  1  0
 41 46  1  0
 47 59  1  0
 51 64  1  0
 51 69  1  0
 54 59  1  0
 55 67  1  0
 61 68  1  0
 61 70  1  0
 65 67  1  0
 65 68  1  0
 70 71  1  0
 70 77  1  1
 71 72  2  0
 71 73  1  0
 72 74  1  0
 73 75  2  0
 74 76  2  0
 75 76  1  0
 78 79  1  0
 78 80  1  0
 79 81  1  0
 79 84  1  1
 80 82  1  0
 81 83  1  0
 81 85  1  1
 82 83  1  0
 82 87  1  6
 83 86  1  6
 89 84  1  1
 87 88  1  0
 89 90  1  0
 89 91  1  0
 90 92  1  0
 90 95  1  6
 91 93  1  0
 92 94  1  0
 92 96  1  6
 93 94  1  0
 93 98  1  6
 94 97  1  1
 96100  1  0
 98 99  1  0
100101  2  0
100102  1  0
103104  1  0
104105  2  0
104106  2  0
104107  1  0
M  END
>  <Formula>  (580) 
C61H90N18O25S3

>  <FW>  (580) 
1571.6679 (1473.5894+98.0785)

>  <DSSTox_CID>  (580) 
28539

>  <NR-Aromatase>  (580) 
0

>  <NR-AR>  (580) 
0

>  <NR-AR-LBD>  (580) 
0

>  <NR-ER>  (580) 
0

>  <NR-ER-LBD>  (580) 
0

>  <NR-AhR>  (580) 
0

>  <SR-ATAD5>  (580) 
0

>  <SR-MMP>  (580) 
0

>  <SR-p53>  (580) 
1

$$$$
NCGC00249417-01
     RDKit          2D

 35 38  0  0  0  0  0  0  0  0999 V2000
    9.8877   -4.1372    0.0000 C   0  0  0  0  0  0  0  0  0  0  0  0
    9.8976   -4.9488    0.0000 O   0  0  0  0  0  0  0  0  0  0  0  0
    9.1751   -5.3744    0.0000 C   0  0  0  0  0  0  0  0  0  0  0  0
    8.4624   -4.9488    0.0000 C   0  0  0  0  0  0  0  0  0  0  0  0
    8.4624   -4.1273    0.0000 N   0  0  0  0  0  0  0  0  0  0  0  0
    9.1751   -3.7116    0.0000 C   0  0  0  0  0  0  0  0  0  0  0  0
    7.7399   -3.7116    0.0000 S   0  0  0  0  0  0  0  0  0  0  0  0
    8.1655   -2.9989    0.0000 O   0  0  0  0  0  0  0  0  0  0  0  0
    7.3341   -4.4242    0.0000 O   0  0  0  0  0  0  0  0  0  0  0  0
    7.0273   -3.2959    0.0000 C   0  0  0  0  0  0  0  0  0  0  0  0
    6.3048   -3.7116    0.0000 C   0  0  0  0  0  0  0  0  0  0  0  0
    5.6020   -3.2959    0.0000 C   0  0  0  0  0  0  0  0  0  0  0  0
    5.6020   -2.4744    0.0000 C   0  0  0  0  0  0  0  0  0  0  0  0
    6.3146   -2.0587    0.0000 C   0  0  0  0  0  0  0  0  0  0  0  0
    7.0273   -2.4843    0.0000 C   0  0  0  0  0  0  0  0  0  0  0  0
    4.8795   -2.0587    0.0000 N   0  0  0  0  0  0  0  0  0  0  0  0
    4.1669   -2.4843    0.0000 C   0  0  0  0  0  0  0  0  0  0  0  0
    4.1669   -3.3058    0.0000 O   0  0  0  0  0  0  0  0  0  0  0  0
    3.4443   -2.0587    0.0000 C   0  0  0  0  0  0  0  0  0  0  0  0
    3.4443   -1.2372    0.0000 C   0  0  0  0  0  0  0  0  0  0  0  0
    2.7416   -0.8215    0.0000 C   0  0  0  0  0  0  0  0  0  0  0  0
    2.0191   -1.2372    0.0000 C   0  0  0  0  0  0  0  0  0  0  0  0
    2.0191   -2.0587    0.0000 C   0  0  0  0  0  0  0  0  0  0  0  0
    2.7416   -2.4843    0.0000 C   0  0  0  0  0  0  0  0  0  0  0  0
    2.7416   -3.3058    0.0000 N   0  0  0  0  0  0  0  0  0  0  0  0
    2.0191   -3.7116    0.0000 S   0  0  0  0  0  0  0  0  0  0  0  0
    1.3065   -4.1273    0.0000 C   0  0  0  0  0  0  0  0  0  0  0  0
    1.2174   -4.9488    0.0000 S   0  0  0  0  0  0  0  0  0  0  0  0
    0.4157   -5.1170    0.0000 C   0  0  0  0  0  0  0  0  0  0  0  0
    0.0000   -4.4044    0.0000 C   0  0  0  0  0  0  0  0  0  0  0  0
    0.5443   -3.8007    0.0000 C   0  0  0  0  0  0  0  0  0  0  0  0
    0.0693   -5.8792    0.0000 Cl  0  0  0  0  0  0  0  0  0  0  0  0
    2.4348   -4.4242    0.0000 O   0  0  0  0  0  0  0  0  0  0  0  0
    1.6034   -2.9989    0.0000 O   0  0  0  0  0  0  0  0  0  0  0  0
    2.7317    0.0000    0.0000 Cl  0  0  0  0  0  0  0  0  0  0  0  0
  1  2  1  0
  1  6  1  0
  2  3  1  0
  3  4  1  0
  4  5  1  0
  5  6  1  0
  5  7  1  0
  7  8  2  0
  7  9  2  0
  7 10  1  0
 10 11  2  0
 10 15  1  0
 11 12  1  0
 12 13  2  0
 13 14  1  0
 13 16  1  0
 14 15  2  0
 16 17  1  0
 17 18  2  0
 17 19  1  0
 19 20  2  0
 19 24  1  0
 20 21  1  0
 21 22  2  0
 21 35  1  0
 22 23  1  0
 23 24  2  0
 24 25  1  0
 25 26  1  0
 26 27  1  0
 26 33  2  0
 26 34  2  0
 27 28  1  0
 27 31  2  0
 28 29  1  0
 29 30  2  0
 29 32  1  0
 30 31  1  0
M  END
>  <Formula>  (581) 
C21H19Cl2N3O6S3

>  <FW>  (581) 
576.4931

>  <DSSTox_CID>  (581) 
28672

>  <NR-Aromatase>  (581) 
0

>  <NR-AR>  (581) 
0

>  <NR-AR-LBD>  (581) 
0

>  <NR-ER>  (581) 
0

>  <NR-ER-LBD>  (581) 
0

>  <NR-PPAR-gamma>  (581) 
0

>  <NR-AhR>  (581) 
0

>  <SR-ATAD5>  (581) 
0

>  <SR-p53>  (581) 
1

$$$$
NCGC00182713-01
     RDKit          2D

 34 37  0  0  0  0  0  0  0  0999 V2000
    6.4307   -1.6602    0.0000 C   0  0  0  0  0  0  0  0  0  0  0  0
    6.4307   -2.4902    0.0000 C   0  0  0  0  0  0  0  0  0  0  0  0
    5.7206   -1.2401    0.0000 C   0  0  0  0  0  0  0  0  0  0  0  0
    5.7206   -2.8903    0.0000 C   0  0  0  0  0  0  0  0  0  0  0  0
    5.0005   -1.6602    0.0000 C   0  0  0  0  0  0  0  0  0  0  0  0
    5.0005   -2.4902    0.0000 C   0  0  0  0  0  0  0  0  0  0  0  0
    7.1508   -1.2401    0.0000 N   0  0  0  0  0  0  0  0  0  0  0  0
    7.8608   -1.6602    0.0000 C   0  0  0  0  0  0  0  0  0  0  0  0
    7.1508   -2.8903    0.0000 C   0  0  0  0  0  0  0  0  0  0  0  0
    7.8608   -2.4902    0.0000 N   0  0  0  0  0  0  0  0  0  0  0  0
    4.2804   -1.2401    0.0000 O   0  0  0  0  0  0  0  0  0  0  0  0
    3.5704   -1.6602    0.0000 C   0  0  0  0  0  0  0  0  0  0  0  0
    2.8503   -1.2401    0.0000 C   0  0  0  0  0  0  0  0  0  0  0  0
    2.1502   -1.6501    0.0000 C   0  0  0  0  0  0  0  0  0  0  0  0
    1.4301   -1.2401    0.0000 N   0  0  0  0  0  0  0  0  0  0  0  0
    0.7201   -1.6501    0.0000 C   0  0  0  0  0  0  0  0  0  0  0  0
    1.4301   -0.4200    0.0000 C   0  0  0  0  0  0  0  0  0  0  0  0
    0.0000   -1.2401    0.0000 C   0  0  0  0  0  0  0  0  0  0  0  0
    0.7201    0.0000    0.0000 C   0  0  0  0  0  0  0  0  0  0  0  0
    0.0000   -0.4200    0.0000 O   0  0  0  0  0  0  0  0  0  0  0  0
    4.2804   -2.8903    0.0000 N   0  0  0  0  0  0  0  0  0  0  0  0
    4.2804   -3.7204    0.0000 C   0  0  0  0  0  0  0  0  0  0  0  0
    3.5704   -4.1304    0.0000 C   0  0  0  0  0  0  0  0  0  0  0  0
    5.0005   -4.1404    0.0000 O   0  0  0  0  0  0  0  0  0  0  0  0
    2.8503   -3.7204    0.0000 C   0  0  0  0  0  0  0  0  0  0  0  0
    7.1508   -3.7204    0.0000 N   0  0  0  0  0  0  0  0  0  0  0  0
    7.8608   -4.1404    0.0000 C   0  0  0  0  0  0  0  0  0  0  0  0
    8.5809   -3.7204    0.0000 C   0  0  0  0  0  0  0  0  0  0  0  0
    7.8608   -4.9605    0.0000 C   0  0  0  0  0  0  0  0  0  0  0  0
    9.2810   -4.1404    0.0000 C   0  0  0  0  0  0  0  0  0  0  0  0
    8.5809   -5.3706    0.0000 C   0  0  0  0  0  0  0  0  0  0  0  0
    9.2810   -4.9605    0.0000 C   0  0  0  0  0  0  0  0  0  0  0  0
   10.0010   -3.7204    0.0000 Cl  0  0  0  0  0  0  0  0  0  0  0  0
   10.0010   -5.3706    0.0000 F   0  0  0  0  0  0  0  0  0  0  0  0
  1  3  2  0
  1  7  1  0
  1  2  1  0
  2  4  2  0
  2  9  1  0
  3  5  1  0
  4  6  1  0
  5  6  2  0
  5 11  1  0
  6 21  1  0
  7  8  2  0
  8 10  1  0
  9 10  2  0
  9 26  1  0
 11 12  1  0
 12 13  1  0
 13 14  1  0
 14 15  1  0
 15 16  1  0
 15 17  1  0
 16 18  1  0
 17 19  1  0
 18 20  1  0
 19 20  1  0
 21 22  1  0
 22 23  1  0
 22 24  2  0
 23 25  2  0
 26 27  1  0
 27 28  2  0
 27 29  1  0
 28 30  1  0
 29 31  2  0
 30 32  2  0
 30 33  1  0
 31 32  1  0
 32 34  1  0
M  END
>  <Formula>  (582) 
C24H25ClFN5O3

>  <FW>  (582) 
485.9384

>  <DSSTox_CID>  (582) 
28869

>  <NR-AR>  (582) 
0

>  <NR-ER>  (582) 
1

>  <NR-ER-LBD>  (582) 
1

>  <NR-PPAR-gamma>  (582) 
0

>  <NR-AhR>  (582) 
0

>  <SR-ARE>  (582) 
1

>  <SR-HSE>  (582) 
1

>  <SR-p53>  (582) 
1

$$$$
NCGC00014750-02
     RDKit          2D

 22 26  0  0  1  0  0  0  0  0999 V2000
    2.1111   -1.6353    0.0000 N   0  0  0  0  0  0  0  0  0  0  0  0
    2.8247   -1.2290    0.0000 C   0  0  0  0  0  0  0  0  0  0  0  0
    2.8247   -0.3964    0.0000 C   0  0  0  0  0  0  0  0  0  0  0  0
    2.1111   -2.4481    0.0000 C   0  0  0  0  0  0  0  0  0  0  0  0
    1.4272   -1.2290    0.0000 C   0  0  0  0  0  0  0  0  0  0  0  0
    3.5284   -1.6353    0.0000 C   0  0  0  0  0  0  0  0  0  0  0  0
    3.5284   -2.4481    0.0000 C   0  0  0  0  0  0  0  0  0  0  0  0
    1.4272   -0.3964    0.0000 C   0  0  0  0  0  0  0  0  0  0  0  0
    4.2519   -1.2290    0.0000 N   0  0  0  0  0  0  0  0  0  0  0  0
    2.8247   -2.8644    0.0000 C   0  0  0  0  0  0  0  0  0  0  0  0
    3.5284    0.0000    0.0000 C   0  0  0  0  0  0  0  0  0  0  0  0
    1.3975   -2.8941    0.0000 O   0  0  0  0  0  0  0  0  0  0  0  0
    4.2519   -0.3964    0.0000 C   0  0  0  0  0  0  0  0  0  0  0  0
    4.2519   -2.8644    0.0000 C   0  0  0  0  0  0  0  0  0  0  0  0
    3.5581   -3.3897    0.0000 C   0  0  0  0  0  0  0  0  0  0  0  0
    0.7037   -1.6353    0.0000 C   0  0  0  0  0  0  0  0  0  0  0  0
    4.9557   -1.6353    0.0000 C   0  0  0  0  0  0  0  0  0  0  0  0
    0.7037    0.0000    0.0000 C   0  0  0  0  0  0  0  0  0  0  0  0
    4.9557   -2.4481    0.0000 C   0  0  0  0  0  0  0  0  0  0  0  0
    4.2619   -3.8456    0.0000 C   0  0  0  0  0  0  0  0  0  0  0  0
    0.0000   -1.2290    0.0000 C   0  0  0  0  0  0  0  0  0  0  0  0
    0.0000   -0.3964    0.0000 C   0  0  0  0  0  0  0  0  0  0  0  0
  1  2  1  0
  1  4  1  0
  1  5  1  0
  2  3  2  0
  2  6  1  0
  3 11  1  0
  3  8  1  0
  4 10  1  0
  4 12  2  0
  5  8  2  0
  5 16  1  0
  6  9  1  1
  6  7  1  0
  7 10  1  0
  7 14  1  0
  7 15  1  6
  8 18  1  0
  9 13  1  0
  9 17  1  0
 11 13  1  0
 14 19  1  0
 15 20  1  0
 16 21  2  0
 17 19  1  0
 18 22  2  0
 21 22  1  0
M  END
>  <Formula>  (583) 
C19H22N2O

>  <FW>  (583) 
294.3908

>  <DSSTox_CID>  (583) 
25119

>  <NR-Aromatase>  (583) 
1

>  <NR-AR>  (583) 
0

>  <NR-AR-LBD>  (583) 
0

>  <NR-ER>  (583) 
0

>  <NR-PPAR-gamma>  (583) 
0

>  <NR-AhR>  (583) 
0

>  <SR-ATAD5>  (583) 
0

>  <SR-MMP>  (583) 
0

>  <SR-p53>  (583) 
1

$$$$
NCGC00183830-01
     RDKit          2D

 30 31  0  0  0  0  0  0  0  0999 V2000
    4.2796   -4.2602    0.0000 C   0  0  0  0  0  0  0  0  0  0  0  0
    3.5964   -3.8284    0.0000 C   0  0  0  0  0  0  0  0  0  0  0  0
    2.8488   -4.2602    0.0000 C   0  0  0  0  0  0  0  0  0  0  0  0
    2.8488   -5.0852    0.0000 C   0  0  0  0  0  0  0  0  0  0  0  0
    3.5964   -5.5042    0.0000 C   0  0  0  0  0  0  0  0  0  0  0  0
    4.2796   -5.0852    0.0000 C   0  0  0  0  0  0  0  0  0  0  0  0
    4.2796   -1.2439    0.0000 C   0  0  0  0  0  0  0  0  0  0  0  0
    3.5964   -0.8250    0.0000 N   0  0  0  0  0  0  0  0  0  0  0  0
    2.8488   -1.2439    0.0000 C   0  0  0  0  0  0  0  0  0  0  0  0
    2.8488   -2.0689    0.0000 C   0  0  0  0  0  0  0  0  0  0  0  0
    3.5964   -2.4749    0.0000 C   0  0  0  0  0  0  0  0  0  0  0  0
    4.2796   -2.0689    0.0000 C   0  0  0  0  0  0  0  0  0  0  0  0
    5.0272   -0.8250    0.0000 C   0  0  0  0  0  0  0  0  0  0  0  0
    5.0272   -2.4749    0.0000 C   0  0  0  0  0  0  0  0  0  0  0  0
    5.0272   -3.3322    0.0000 O   0  0  0  0  0  0  0  0  0  0  0  0
    5.7426   -2.0689    0.0000 O   0  0  0  0  0  0  0  0  0  0  0  0
    6.4452   -2.4749    0.0000 C   0  0  0  0  0  0  0  0  0  0  0  0
    5.0272   -5.5042    0.0000 Cl  0  0  0  0  0  0  0  0  0  0  0  0
    5.0272   -3.8284    0.0000 Cl  0  0  0  0  0  0  0  0  0  0  0  0
    2.1333   -2.4749    0.0000 C   0  0  0  0  0  0  0  0  0  0  0  0
    2.1333   -0.8250    0.0000 C   0  0  0  0  0  0  0  0  0  0  0  0
    1.4179   -1.2439    0.0000 O   0  0  0  0  0  0  0  0  0  0  0  0
    0.7026   -0.8250    0.0000 C   0  0  0  0  0  0  0  0  0  0  0  0
    0.7026    0.0000    0.0000 O   0  0  0  0  0  0  0  0  0  0  0  0
    0.0000   -1.2439    0.0000 N   0  0  0  0  0  0  0  0  0  0  0  0
    1.4179   -2.0689    0.0000 O   0  0  0  0  0  0  0  0  0  0  0  0
    2.1333   -3.2999    0.0000 O   0  0  0  0  0  0  0  0  0  0  0  0
    0.7026   -2.4749    0.0000 C   0  0  0  0  0  0  0  0  0  0  0  0
    0.7026   -3.2999    0.0000 C   0  0  0  0  0  0  0  0  0  0  0  0
    0.0000   -2.0689    0.0000 C   0  0  0  0  0  0  0  0  0  0  0  0
  1 19  1  0
  1  6  2  0
  1  2  1  0
  2 11  1  0
  2  3  2  0
  3  4  1  0
  4  5  2  0
  5  6  1  0
  6 18  1  0
  7 12  2  0
  7 13  1  0
  7  8  1  0
  8  9  1  0
  9 21  1  0
  9 10  2  0
 10 20  1  0
 10 11  1  0
 11 12  1  0
 12 14  1  0
 14 15  2  0
 14 16  1  0
 16 17  1  0
 20 26  1  0
 20 27  2  0
 21 22  1  0
 22 23  1  0
 23 24  2  0
 23 25  1  0
 26 28  1  0
 28 29  1  0
 28 30  1  0
M  END
>  <Formula>  (584) 
C20H22Cl2N2O6

>  <FW>  (584) 
457.3045

>  <DSSTox_CID>  (584) 
28738

>  <NR-AR>  (584) 
0

>  <NR-AR-LBD>  (584) 
1

>  <NR-ER>  (584) 
0

>  <NR-PPAR-gamma>  (584) 
1

>  <SR-ARE>  (584) 
1

>  <SR-ATAD5>  (584) 
0

>  <SR-HSE>  (584) 
1

>  <SR-p53>  (584) 
1

$$$$
NCGC00255126-01
     RDKit          2D

 42 48  0  0  1  0  0  0  0  0999 V2000
    0.0000   -1.9800    0.0000 C   0  0  0  0  0  0  0  0  0  0  0  0
    0.8250   -1.9800    0.0000 O   0  0  0  0  0  0  0  0  0  0  0  0
    1.2375   -2.6977    0.0000 C   0  0  0  0  0  0  0  0  0  0  0  0
    2.0625   -2.6977    0.0000 C   0  0  0  0  0  0  0  0  0  0  0  0
    2.4749   -3.4072    0.0000 C   0  0  0  0  0  0  0  0  0  0  0  0
    2.0625   -4.1249    0.0000 C   0  0  0  0  0  0  0  0  0  0  0  0
    1.2375   -4.1249    0.0000 C   0  0  0  0  0  0  0  0  0  0  0  0
    0.8250   -4.8427    0.0000 O   0  0  0  0  0  0  0  0  0  0  0  0
    0.0000   -4.8427    0.0000 C   0  0  0  0  0  0  0  0  0  0  0  0
    0.8250   -3.4072    0.0000 C   0  0  0  0  0  0  0  0  0  0  0  0
    0.0000   -3.4072    0.0000 O   0  0  0  0  0  0  0  0  0  0  0  0
    3.2999   -3.4072    0.0000 C   0  0  0  0  0  0  0  0  0  0  0  0
    3.7124   -2.6977    0.0000 C   0  0  0  0  0  0  0  0  0  0  0  0
    3.2999   -1.9800    0.0000 C   0  0  0  0  0  0  0  0  0  0  0  0
    3.7124   -1.2705    0.0000 C   0  0  0  0  0  0  0  0  0  0  0  0
    3.4567   -0.4785    0.0000 O   0  0  0  0  0  0  0  0  0  0  0  0
    4.1249    0.0000    0.0000 C   0  0  0  0  0  0  0  0  0  0  0  0
    4.7932   -0.4785    0.0000 O   0  0  0  0  0  0  0  0  0  0  0  0
    4.5374   -1.2705    0.0000 C   0  0  0  0  0  0  0  0  0  0  0  0
    4.9499   -1.9800    0.0000 C   0  0  0  0  0  0  0  0  0  0  0  0
    4.5374   -2.6977    0.0000 C   0  0  0  0  0  0  0  0  0  0  0  0
    4.9499   -3.4072    0.0000 C   0  0  0  0  0  0  0  0  0  0  0  0
    5.7749   -3.4072    0.0000 O   0  0  0  0  0  0  0  0  0  0  0  0
    6.1874   -4.1249    0.0000 C   0  0  0  0  0  0  0  0  0  0  0  0
    5.7749   -4.8427    0.0000 O   0  0  0  0  0  0  0  0  0  0  0  0
    6.1874   -5.5521    0.0000 C   0  0  0  0  0  0  0  0  0  0  0  0
    5.7749   -6.2699    0.0000 C   0  0  0  0  0  0  0  0  0  0  0  0
    6.1874   -6.9793    0.0000 O   0  0  0  0  0  0  0  0  0  0  0  0
    7.0123   -6.9793    0.0000 C   0  0  0  0  0  0  0  0  0  0  0  0
    7.4249   -7.6971    0.0000 C   0  0  0  0  0  0  0  0  0  0  0  0
    7.4249   -6.2699    0.0000 O   0  0  0  0  0  0  0  0  0  0  0  0
    7.0123   -5.5521    0.0000 C   0  0  0  0  0  0  0  0  0  0  0  0
    7.4249   -4.8427    0.0000 C   0  0  0  0  0  0  0  0  0  0  0  0
    8.2498   -4.8427    0.0000 O   0  0  0  0  0  0  0  0  0  0  0  0
    7.0123   -4.1249    0.0000 C   0  0  0  0  0  0  0  0  0  0  0  0
    7.4249   -3.4072    0.0000 O   0  0  0  0  0  0  0  0  0  0  0  0
    4.5374   -4.1249    0.0000 C   0  0  0  0  0  0  0  0  0  0  0  0
    4.7932   -4.9087    0.0000 C   0  0  0  0  0  0  0  0  0  0  0  0
    4.1249   -5.3954    0.0000 O   0  0  0  0  0  0  0  0  0  0  0  0
    3.4567   -4.9087    0.0000 C   0  0  0  0  0  0  0  0  0  0  0  0
    2.6729   -5.1644    0.0000 O   0  0  0  0  0  0  0  0  0  0  0  0
    3.7124   -4.1249    0.0000 C   0  0  0  0  0  0  0  0  0  0  0  0
  1  2  1  0
  2  3  1  0
  3  4  2  0
  3 10  1  0
  4  5  1  0
  5  6  2  0
 12  5  1  6
  6  7  1  0
  7  8  1  0
  7 10  2  0
  8  9  1  0
 10 11  1  0
 12 13  1  0
 12 42  1  0
 13 14  2  0
 13 21  1  0
 14 15  1  0
 15 16  1  0
 15 19  2  0
 16 17  1  0
 17 18  1  0
 18 19  1  0
 19 20  1  0
 20 21  2  0
 21 22  1  0
 22 23  1  0
 22 37  1  0
 24 23  1  1
 24 25  1  0
 24 35  1  0
 26 25  1  0
 26 27  1  1
 26 32  1  0
 27 28  1  0
 28 29  1  0
 29 30  1  6
 29 31  1  0
 32 31  1  6
 32 33  1  0
 33 34  1  1
 33 35  1  0
 35 36  1  6
 37 38  1  0
 37 42  1  0
 38 39  1  0
 39 40  1  0
 40 41  2  0
 42 40  1  6
M  END
>  <Formula>  (585) 
C29H32O13

>  <FW>  (585) 
588.5566

>  <DSSTox_CID>  (585) 
3035

>  <NR-Aromatase>  (585) 
0

>  <NR-AR>  (585) 
0

>  <NR-AR-LBD>  (585) 
0

>  <NR-ER-LBD>  (585) 
0

>  <NR-AhR>  (585) 
0

>  <SR-ATAD5>  (585) 
0

>  <SR-HSE>  (585) 
1

>  <SR-MMP>  (585) 
0

>  <SR-p53>  (585) 
1

$$$$
NCGC00260032-01
     RDKit          2D

 40 43  0  0  1  0  0  0  0  0999 V2000
    2.0995   -6.7060    0.0000 O   0  0  0  0  0  0  0  0  0  0  0  0
    2.3816   -5.9304    0.0000 C   0  0  0  0  0  0  0  0  0  0  0  0
    1.8567   -5.3115    0.0000 C   0  0  0  0  0  0  0  0  0  0  0  0
    1.0420   -5.4447    0.0000 O   0  0  0  0  0  0  0  0  0  0  0  0
    2.1387   -4.5281    0.0000 C   0  0  0  0  0  0  0  0  0  0  0  0
    1.3318   -4.3871    0.0000 O   0  0  0  0  0  0  0  0  0  0  0  0
    2.1387   -3.6977    0.0000 C   0  0  0  0  0  0  0  0  0  0  0  0
    2.8594   -3.2982    0.0000 C   0  0  0  0  0  0  0  0  0  0  0  0
    2.8594   -2.4677    0.0000 O   0  0  0  0  0  0  0  0  0  0  0  0
    2.1387   -2.0525    0.0000 C   0  0  0  0  0  0  0  0  0  0  0  0
    1.4258   -2.4677    0.0000 C   0  0  0  0  0  0  0  0  0  0  0  0
    0.7129   -2.0525    0.0000 C   0  0  0  0  0  0  0  0  0  0  0  0
    0.0000   -2.4677    0.0000 N   0  0  0  0  0  0  0  0  0  0  0  0
    0.7129   -1.2300    0.0000 C   0  0  0  0  0  0  0  0  0  0  0  0
    0.0000   -0.8226    0.0000 O   0  0  0  0  0  0  0  0  0  0  0  0
    1.4258   -0.8226    0.0000 C   0  0  0  0  0  0  0  0  0  0  0  0
    1.4258    0.0000    0.0000 C   0  0  0  0  0  0  0  0  0  0  0  0
    2.1387   -1.2300    0.0000 O   0  0  0  0  0  0  0  0  0  0  0  0
    3.5724   -3.6977    0.0000 C   0  0  0  0  0  0  0  0  0  0  0  0
    4.2774   -3.2982    0.0000 C   0  0  0  0  0  0  0  0  0  0  0  0
    4.2774   -2.4677    0.0000 O   0  0  0  0  0  0  0  0  0  0  0  0
    4.9903   -3.6977    0.0000 C   0  0  0  0  0  0  0  0  0  0  0  0
    5.7032   -3.2982    0.0000 C   0  0  0  0  0  0  0  0  0  0  0  0
    5.7032   -2.4677    0.0000 O   0  0  0  0  0  0  0  0  0  0  0  0
    6.4161   -3.6977    0.0000 C   0  0  0  0  0  0  0  0  0  0  0  0
    7.1291   -3.2982    0.0000 C   0  0  0  0  0  0  0  0  0  0  0  0
    7.1291   -2.4677    0.0000 O   0  0  0  0  0  0  0  0  0  0  0  0
    7.8341   -2.0525    0.0000 C   0  0  0  0  0  0  0  0  0  0  0  0
    7.8341   -3.6977    0.0000 C   0  0  0  0  0  0  0  0  0  0  0  0
    7.8341   -4.5281    0.0000 C   0  0  0  0  0  0  0  0  0  0  0  0
    7.1291   -4.9433    0.0000 C   0  0  0  0  0  0  0  0  0  0  0  0
    6.4161   -4.5281    0.0000 C   0  0  0  0  0  0  0  0  0  0  0  0
    5.7032   -4.9433    0.0000 C   0  0  0  0  0  0  0  0  0  0  0  0
    5.7032   -5.7659    0.0000 O   0  0  0  0  0  0  0  0  0  0  0  0
    4.9903   -4.5281    0.0000 C   0  0  0  0  0  0  0  0  0  0  0  0
    4.2774   -4.9433    0.0000 C   0  0  0  0  0  0  0  0  0  0  0  0
    4.2774   -5.7659    0.0000 O   0  0  0  0  0  0  0  0  0  0  0  0
    3.5724   -4.5281    0.0000 C   0  0  0  0  0  0  0  0  0  0  0  0
    2.8594   -4.9433    0.0000 C   0  0  0  0  0  0  0  0  0  0  0  0
    5.9696   -0.3682    0.0000 Cl  0  0  0  0  0  0  0  0  0  0  0  0
  1  2  1  0
  2  3  1  0
  3  4  2  0
  5  3  1  0
  5  6  1  6
  5  7  1  0
  5 39  1  0
  7  8  1  0
  8  9  1  6
  8 19  1  0
 10  9  1  1
 10 11  1  0
 10 18  1  0
 11 12  1  0
 12 13  1  6
 12 14  1  0
 14 15  1  6
 14 16  1  0
 16 17  1  6
 16 18  1  0
 19 20  1  0
 19 38  2  0
 20 21  1  0
 20 22  2  0
 22 23  1  0
 22 35  1  0
 23 24  2  0
 23 25  1  0
 25 26  2  0
 25 32  1  0
 26 27  1  0
 26 29  1  0
 27 28  1  0
 29 30  2  0
 30 31  1  0
 31 32  2  0
 32 33  1  0
 33 34  2  0
 33 35  1  0
 35 36  2  0
 36 37  1  0
 36 38  1  0
 38 39  1  0
M  END
>  <Formula>  (586) 
C27H30ClNO11

>  <FW>  (586) 
579.9802 (543.5193+36.4609)

>  <DSSTox_CID>  (586) 
10636

>  <NR-Aromatase>  (586) 
1

>  <NR-AR>  (586) 
0

>  <NR-AR-LBD>  (586) 
1

>  <NR-ER-LBD>  (586) 
1

>  <NR-AhR>  (586) 
0

>  <SR-ATAD5>  (586) 
1

>  <SR-HSE>  (586) 
0

>  <SR-MMP>  (586) 
1

>  <SR-p53>  (586) 
1

$$$$
NCGC00257902-01
     RDKit          2D

 26 29  0  0  0  0  0  0  0  0999 V2000
    7.0874   -0.7125    0.0000 C   0  0  0  0  0  0  0  0  0  0  0  0
    6.2624   -0.7125    0.0000 O   0  0  0  0  0  0  0  0  0  0  0  0
    5.8499   -1.4250    0.0000 C   0  0  0  0  0  0  0  0  0  0  0  0
    5.0249   -1.4250    0.0000 C   0  0  0  0  0  0  0  0  0  0  0  0
    4.6124   -0.7125    0.0000 C   0  0  0  0  0  0  0  0  0  0  0  0
    3.7874   -0.7125    0.0000 N   0  0  0  0  0  0  0  0  0  0  0  0
    3.3675    0.0000    0.0000 C   0  0  0  0  0  0  0  0  0  0  0  0
    2.5425    0.0000    0.0000 C   0  0  0  0  0  0  0  0  0  0  0  0
    2.1300   -0.7125    0.0000 C   0  0  0  0  0  0  0  0  0  0  0  0
    2.5425   -1.4250    0.0000 C   0  0  0  0  0  0  0  0  0  0  0  0
    2.1300   -2.1450    0.0000 C   0  0  0  0  0  0  0  0  0  0  0  0
    1.3050   -2.1450    0.0000 C   0  0  0  0  0  0  0  0  0  0  0  0
    0.7575   -2.7525    0.0000 O   0  0  0  0  0  0  0  0  0  0  0  0
    0.0000   -2.4224    0.0000 C   0  0  0  0  0  0  0  0  0  0  0  0
    0.0900   -1.5975    0.0000 O   0  0  0  0  0  0  0  0  0  0  0  0
    0.8925   -1.4250    0.0000 C   0  0  0  0  0  0  0  0  0  0  0  0
    1.3050   -0.7125    0.0000 C   0  0  0  0  0  0  0  0  0  0  0  0
    3.3675   -1.4250    0.0000 C   0  0  0  0  0  0  0  0  0  0  0  0
    3.7874   -2.1450    0.0000 C   0  0  0  0  0  0  0  0  0  0  0  0
    4.6124   -2.1450    0.0000 C   0  0  0  0  0  0  0  0  0  0  0  0
    5.0249   -2.8574    0.0000 C   0  0  0  0  0  0  0  0  0  0  0  0
    5.8499   -2.8574    0.0000 C   0  0  0  0  0  0  0  0  0  0  0  0
    6.2624   -2.1450    0.0000 C   0  0  0  0  0  0  0  0  0  0  0  0
    7.0874   -2.1450    0.0000 O   0  0  0  0  0  0  0  0  0  0  0  0
    7.4998   -2.8574    0.0000 C   0  0  0  0  0  0  0  0  0  0  0  0
    3.7124   -3.6824    0.0000 Cl  0  0  0  0  0  0  0  0  0  0  0  0
  1  2  1  0
  2  3  1  0
  3  4  2  0
  3 23  1  0
  4  5  1  0
  4 20  1  0
  5  6  2  0
  6  7  1  0
  6 18  1  0
  7  8  1  0
  8  9  1  0
  9 10  2  0
  9 17  1  0
 10 11  1  0
 10 18  1  0
 11 12  2  0
 12 13  1  0
 12 16  1  0
 13 14  1  0
 14 15  1  0
 15 16  1  0
 16 17  2  0
 18 19  2  0
 19 20  1  0
 20 21  2  0
 21 22  1  0
 22 23  2  0
 23 24  1  0
 24 25  1  0
M  CHG  2   6   1  26  -1
M  END
>  <Formula>  (587) 
C20H18ClNO4

>  <FW>  (587) 
371.8142 (336.3607+35.4535)

>  <DSSTox_CID>  (587) 
4602

>  <NR-AR>  (587) 
0

>  <NR-ER-LBD>  (587) 
0

>  <NR-PPAR-gamma>  (587) 
0

>  <NR-AhR>  (587) 
1

>  <SR-ARE>  (587) 
1

>  <SR-ATAD5>  (587) 
0

>  <SR-HSE>  (587) 
0

>  <SR-MMP>  (587) 
1

>  <SR-p53>  (587) 
1

$$$$
NCGC00091120-01
     RDKit          2D

 24 26  0  0  1  0  0  0  0  0999 V2000
    4.0506   -0.7100    0.0000 O   0  0  0  0  0  0  0  0  0  0  0  0
    3.8004   -1.5012    0.0000 C   0  0  0  0  0  0  0  0  0  0  0  0
    3.0092   -1.7582    0.0000 C   0  0  0  0  0  0  0  0  0  0  0  0
    3.0092   -2.5832    0.0000 C   0  0  0  0  0  0  0  0  0  0  0  0
    3.8004   -2.8334    0.0000 O   0  0  0  0  0  0  0  0  0  0  0  0
    4.2805   -2.1639    0.0000 C   0  0  0  0  0  0  0  0  0  0  0  0
    4.6998   -1.4539    0.0000 C   0  0  0  0  0  0  0  0  0  0  0  0
    5.5248   -1.4539    0.0000 C   0  0  0  0  0  0  0  0  0  0  0  0
    5.9372   -2.1639    0.0000 C   0  0  0  0  0  0  0  0  0  0  0  0
    6.7622   -2.1639    0.0000 O   0  0  0  0  0  0  0  0  0  0  0  0
    5.5248   -2.8807    0.0000 C   0  0  0  0  0  0  0  0  0  0  0  0
    4.6998   -2.8807    0.0000 C   0  0  0  0  0  0  0  0  0  0  0  0
    4.2805   -3.6042    0.0000 C   0  0  0  0  0  0  0  0  0  0  0  0
    4.5510   -0.6357    0.0000 O   0  0  0  0  0  0  0  0  0  0  0  0
    5.1867   -0.1082    0.0000 C   0  0  0  0  0  0  0  0  0  0  0  0
    2.2992   -2.9957    0.0000 C   0  0  0  0  0  0  0  0  0  0  0  0
    2.2992   -3.8207    0.0000 Cl  0  0  0  0  0  0  0  0  0  0  0  0
    1.5756   -2.5832    0.0000 C   0  0  0  0  0  0  0  0  0  0  0  0
    0.8588   -2.9957    0.0000 O   0  0  0  0  0  0  0  0  0  0  0  0
    0.0000   -2.0354    0.0000 C   0  0  0  0  0  0  0  0  0  0  0  0
    1.5756   -1.7582    0.0000 C   0  0  0  0  0  0  0  0  0  0  0  0
    2.2992   -1.3389    0.0000 C   0  0  0  0  0  0  0  0  0  0  0  0
    2.2992   -0.5139    0.0000 O   0  0  0  0  0  0  0  0  0  0  0  0
    1.0617    0.0000    0.0000 C   0  0  0  0  0  0  0  0  0  0  0  0
  1  2  2  0
  2  3  1  0
  6  2  1  0
  3  4  2  0
  3 22  1  0
  4  5  1  0
  4 16  1  0
  6  5  1  6
  6  7  1  0
  6 12  1  0
  7  8  2  0
  7 14  1  0
  8  9  1  0
  9 10  2  0
  9 11  1  0
 11 12  1  0
 12 13  1  1
 14 15  1  0
 16 17  1  0
 16 18  2  0
 18 19  1  0
 18 21  1  0
 19 20  1  0
 21 22  2  0
 22 23  1  0
 23 24  1  0
M  END
>  <Formula>  (588) 
C17H17ClO6

>  <FW>  (588) 
352.7663

>  <DSSTox_CID>  (588) 
674

>  <NR-AR>  (588) 
0

>  <NR-AR-LBD>  (588) 
0

>  <NR-ER>  (588) 
0

>  <NR-ER-LBD>  (588) 
0

>  <NR-PPAR-gamma>  (588) 
0

>  <NR-AhR>  (588) 
0

>  <SR-ATAD5>  (588) 
1

>  <SR-MMP>  (588) 
0

>  <SR-p53>  (588) 
1

$$$$
NCGC00255032-01
     RDKit          2D

 27 29  0  0  0  0  0  0  0  0999 V2000
    4.6294   -1.2243    0.0000 C   0  0  0  0  0  0  0  0  0  0  0  0
    4.7660   -2.0441    0.0000 C   0  0  0  0  0  0  0  0  0  0  0  0
    3.8517   -0.9458    0.0000 C   0  0  0  0  0  0  0  0  0  0  0  0
    4.1407   -2.5695    0.0000 C   0  0  0  0  0  0  0  0  0  0  0  0
    3.2159   -1.4871    0.0000 C   0  0  0  0  0  0  0  0  0  0  0  0
    3.3630   -2.2910    0.0000 C   0  0  0  0  0  0  0  0  0  0  0  0
    1.2348   -1.6237    0.0000 C   0  0  0  0  0  0  0  0  0  0  0  0
    1.6500   -0.9091    0.0000 C   0  0  0  0  0  0  0  0  0  0  0  0
    0.4098   -1.6237    0.0000 C   0  0  0  0  0  0  0  0  0  0  0  0
    1.2348   -0.1997    0.0000 C   0  0  0  0  0  0  0  0  0  0  0  0
    0.0000   -0.9091    0.0000 C   0  0  0  0  0  0  0  0  0  0  0  0
    0.4098   -0.1997    0.0000 C   0  0  0  0  0  0  0  0  0  0  0  0
    2.0021   -1.5816    0.0000 C   0  0  0  0  0  0  0  0  0  0  0  0
    2.0021   -0.2417    0.0000 O   0  0  0  0  0  0  0  0  0  0  0  0
    2.7850   -0.4992    0.0000 C   0  0  0  0  0  0  0  0  0  0  0  0
    2.7850   -1.3242    0.0000 C   0  0  0  0  0  0  0  0  0  0  0  0
    3.4419    0.0000    0.0000 O   0  0  0  0  0  0  0  0  0  0  0  0
    1.8392   -2.2806    0.0000 O   0  0  0  0  0  0  0  0  0  0  0  0
    2.3909   -2.9059    0.0000 C   0  0  0  0  0  0  0  0  0  0  0  0
    3.1948   -2.7482    0.0000 O   0  0  0  0  0  0  0  0  0  0  0  0
    2.1176   -3.6835    0.0000 C   0  0  0  0  0  0  0  0  0  0  0  0
    5.2547   -0.6989    0.0000 Cl  0  0  0  0  0  0  0  0  0  0  0  0
    4.2878   -3.3840    0.0000 Cl  0  0  0  0  0  0  0  0  0  0  0  0
    1.3452   -3.4261    0.0000 C   0  0  0  0  0  0  0  0  0  0  0  0
    1.8601   -4.4717    0.0000 C   0  0  0  0  0  0  0  0  0  0  0  0
    2.9059   -3.9515    0.0000 C   0  0  0  0  0  0  0  0  0  0  0  0
    1.0457   -4.6294    0.0000 C   0  0  0  0  0  0  0  0  0  0  0  0
  1  2  2  0
  1  3  1  0
  1 22  1  0
  2  4  1  0
  3  5  2  0
  4  6  2  0
  4 23  1  0
  5  6  1  0
  5 16  1  0
  7  8  1  0
  7  9  1  0
  8 10  1  0
  8 13  1  0
  8 14  1  0
  9 11  1  0
 10 12  1  0
 11 12  1  0
 13 16  2  0
 13 18  1  0
 14 15  1  0
 15 16  1  0
 15 17  2  0
 18 19  1  0
 19 20  2  0
 19 21  1  0
 21 24  1  0
 21 25  1  0
 21 26  1  0
 25 27  1  0
M  END
>  <Formula>  (589) 
C21H24Cl2O4

>  <FW>  (589) 
411.3189

>  <DSSTox_CID>  (589) 
14928

>  <NR-AR>  (589) 
0

>  <NR-ER>  (589) 
1

>  <NR-ER-LBD>  (589) 
0

>  <NR-PPAR-gamma>  (589) 
1

>  <SR-ARE>  (589) 
1

>  <SR-ATAD5>  (589) 
0

>  <SR-HSE>  (589) 
0

>  <SR-MMP>  (589) 
1

>  <SR-p53>  (589) 
1

$$$$
NCGC00182047-01
     RDKit          2D

 20 22  0  0  1  0  0  0  0  0999 V2000
    2.8554   -2.2379    0.0000 N   0  0  0  0  0  0  0  0  0  0  0  0
    2.1094   -2.0057    0.0000 C   0  0  0  0  0  0  0  0  0  0  0  0
    2.1094   -1.1955    0.0000 C   0  0  0  0  0  0  0  0  0  0  0  0
    2.8554   -0.9535    0.0000 N   0  0  0  0  0  0  0  0  0  0  0  0
    3.3198   -1.6055    0.0000 C   0  0  0  0  0  0  0  0  0  0  0  0
    1.4129   -0.7954    0.0000 C   0  0  0  0  0  0  0  0  0  0  0  0
    1.4129   -2.4058    0.0000 N   0  0  0  0  0  0  0  0  0  0  0  0
    0.7311   -1.1955    0.0000 N   0  0  0  0  0  0  0  0  0  0  0  0
    0.7311   -2.0057    0.0000 C   0  0  0  0  0  0  0  0  0  0  0  0
    1.4129    0.0000    0.0000 N   0  0  0  0  0  0  0  0  0  0  0  0
    2.8554   -3.4334    0.0000 C   0  0  0  0  0  0  0  0  0  0  0  0
    1.5068   -3.4334    0.0000 C   0  0  0  0  0  0  0  0  0  0  0  0
    2.1885   -2.9443    0.0000 O   0  0  0  0  0  0  0  0  0  0  0  0
    1.7735   -4.2287    0.0000 C   0  0  0  0  0  0  0  0  0  0  0  0
    2.5985   -4.2287    0.0000 C   0  0  0  0  0  0  0  0  0  0  0  0
    1.3635   -4.9401    0.0000 O   0  0  0  0  0  0  0  0  0  0  0  0
    3.0777   -4.8907    0.0000 O   0  0  0  0  0  0  0  0  0  0  0  0
    0.7114   -3.1666    0.0000 C   0  0  0  0  0  0  0  0  0  0  0  0
    0.1037   -3.7298    0.0000 O   0  0  0  0  0  0  0  0  0  0  0  0
    0.0000   -2.4058    0.0000 F   0  0  0  0  0  0  0  0  0  0  0  0
  1  2  1  0
  1  5  1  0
 11  1  1  1
  2  3  2  0
  2  7  1  0
  3  6  1  0
  3  4  1  0
  4  5  2  0
  6 10  1  0
  6  8  2  0
  7  9  2  0
  8  9  1  0
  9 20  1  0
 11 13  1  0
 11 15  1  0
 12 13  1  0
 12 14  1  0
 12 18  1  1
 14 15  1  0
 14 16  1  6
 15 17  1  1
 18 19  1  0
M  END
>  <Formula>  (590) 
C10H12FN5O4

>  <FW>  (590) 
285.2318

>  <DSSTox_CID>  (590) 
19657

>  <NR-Aromatase>  (590) 
0

>  <NR-AR>  (590) 
0

>  <NR-AR-LBD>  (590) 
0

>  <NR-ER>  (590) 
0

>  <NR-ER-LBD>  (590) 
0

>  <NR-PPAR-gamma>  (590) 
0

>  <NR-AhR>  (590) 
0

>  <SR-ATAD5>  (590) 
0

>  <SR-MMP>  (590) 
0

>  <SR-p53>  (590) 
1

$$$$
NCGC00185753-01
     RDKit          2D

 46 52  0  0  1  0  0  0  0  0999 V2000
    0.7125   -4.1158    0.0000 P   0  0  0  0  0  0  0  0  0  0  0  0
    0.0000   -3.7126    0.0000 O   0  0  0  0  0  0  0  0  0  0  0  0
    1.4344   -4.5376    0.0000 O   0  0  0  0  0  0  0  0  0  0  0  0
    0.3000   -4.8376    0.0000 O   0  0  0  0  0  0  0  0  0  0  0  0
    2.3907   -1.2750    0.0000 C   0  0  0  0  0  0  0  0  0  0  0  0
    1.9500   -1.9782    0.0000 O   0  0  0  0  0  0  0  0  0  0  0  0
    2.3626   -2.7001    0.0000 C   0  0  0  0  0  0  0  0  0  0  0  0
    3.1876   -2.7001    0.0000 C   0  0  0  0  0  0  0  0  0  0  0  0
    3.6001   -3.4032    0.0000 C   0  0  0  0  0  0  0  0  0  0  0  0
    3.1876   -4.1251    0.0000 C   0  0  0  0  0  0  0  0  0  0  0  0
    2.3626   -4.1251    0.0000 C   0  0  0  0  0  0  0  0  0  0  0  0
    1.9500   -4.8470    0.0000 O   0  0  0  0  0  0  0  0  0  0  0  0
    2.2969   -5.5877    0.0000 C   0  0  0  0  0  0  0  0  0  0  0  0
    1.9500   -3.4032    0.0000 C   0  0  0  0  0  0  0  0  0  0  0  0
    1.1250   -3.4032    0.0000 O   0  0  0  0  0  0  0  0  0  0  0  0
    4.4251   -3.4032    0.0000 C   0  0  0  0  0  0  0  0  0  0  0  0
    4.8376   -2.7001    0.0000 C   0  0  0  0  0  0  0  0  0  0  0  0
    4.4251   -1.9782    0.0000 C   0  0  0  0  0  0  0  0  0  0  0  0
    4.8376   -1.2656    0.0000 C   0  0  0  0  0  0  0  0  0  0  0  0
    4.5845   -0.4781    0.0000 O   0  0  0  0  0  0  0  0  0  0  0  0
    5.2502    0.0000    0.0000 C   0  0  0  0  0  0  0  0  0  0  0  0
    5.9158   -0.4781    0.0000 O   0  0  0  0  0  0  0  0  0  0  0  0
    5.6626   -1.2656    0.0000 C   0  0  0  0  0  0  0  0  0  0  0  0
    6.0752   -1.9782    0.0000 C   0  0  0  0  0  0  0  0  0  0  0  0
    5.6626   -2.7001    0.0000 C   0  0  0  0  0  0  0  0  0  0  0  0
    6.0752   -3.4032    0.0000 C   0  0  0  0  0  0  0  0  0  0  0  0
    6.9002   -3.4032    0.0000 O   0  0  0  0  0  0  0  0  0  0  0  0
    7.3127   -4.1251    0.0000 C   0  0  0  0  0  0  0  0  0  0  0  0
    6.9002   -4.8470    0.0000 O   0  0  0  0  0  0  0  0  0  0  0  0
    7.3127   -5.5501    0.0000 C   0  0  0  0  0  0  0  0  0  0  0  0
    6.9002   -6.2627    0.0000 C   0  0  0  0  0  0  0  0  0  0  0  0
    7.3127   -6.9845    0.0000 O   0  0  0  0  0  0  0  0  0  0  0  0
    8.1471   -6.9845    0.0000 C   0  0  0  0  0  0  0  0  0  0  0  0
    8.5502   -7.6970    0.0000 C   0  0  0  0  0  0  0  0  0  0  0  0
    8.5502   -6.2627    0.0000 O   0  0  0  0  0  0  0  0  0  0  0  0
    8.1471   -5.5501    0.0000 C   0  0  0  0  0  0  0  0  0  0  0  0
    8.5502   -4.8470    0.0000 C   0  0  0  0  0  0  0  0  0  0  0  0
    9.3752   -4.8470    0.0000 O   0  0  0  0  0  0  0  0  0  0  0  0
    8.1471   -4.1251    0.0000 C   0  0  0  0  0  0  0  0  0  0  0  0
    8.5502   -3.4032    0.0000 O   0  0  0  0  0  0  0  0  0  0  0  0
    5.6626   -4.1251    0.0000 C   0  0  0  0  0  0  0  0  0  0  0  0
    5.9158   -4.9033    0.0000 C   0  0  0  0  0  0  0  0  0  0  0  0
    5.2502   -5.3908    0.0000 O   0  0  0  0  0  0  0  0  0  0  0  0
    4.5845   -4.9033    0.0000 C   0  0  0  0  0  0  0  0  0  0  0  0
    3.7970   -5.1658    0.0000 O   0  0  0  0  0  0  0  0  0  0  0  0
    4.8376   -4.1251    0.0000 C   0  0  0  0  0  0  0  0  0  0  0  0
  1  2  1  0
  1  3  2  0
  1  4  1  0
  1 15  1  0
  5  6  1  0
  6  7  1  0
  7  8  2  0
  7 14  1  0
  8  9  1  0
  9 10  2  0
 16  9  1  6
 10 11  1  0
 11 12  1  0
 11 14  2  0
 12 13  1  0
 14 15  1  0
 16 17  1  0
 16 46  1  0
 17 18  2  0
 17 25  1  0
 18 19  1  0
 19 20  1  0
 19 23  2  0
 20 21  1  0
 21 22  1  0
 22 23  1  0
 23 24  1  0
 24 25  2  0
 25 26  1  0
 26 27  1  0
 26 41  1  0
 28 27  1  1
 28 29  1  0
 28 39  1  0
 30 29  1  0
 30 31  1  1
 30 36  1  0
 31 32  1  0
 32 33  1  0
 33 34  1  6
 33 35  1  0
 36 35  1  6
 36 37  1  0
 37 38  1  1
 37 39  1  0
 39 40  1  6
 41 42  1  0
 41 46  1  0
 42 43  1  0
 43 44  1  0
 44 45  2  0
 46 44  1  6
M  END
>  <Formula>  (591) 
C29H33O16P

>  <FW>  (591) 
668.5365

>  <DSSTox_CID>  (591) 
28571

>  <NR-Aromatase>  (591) 
0

>  <NR-AR>  (591) 
0

>  <NR-AR-LBD>  (591) 
0

>  <NR-ER>  (591) 
0

>  <NR-ER-LBD>  (591) 
0

>  <NR-PPAR-gamma>  (591) 
0

>  <NR-AhR>  (591) 
0

>  <SR-ATAD5>  (591) 
1

>  <SR-MMP>  (591) 
0

>  <SR-p53>  (591) 
1

$$$$
NCGC00160595-01
     RDKit          2D

 22 25  0  0  0  0  0  0  0  0999 V2000
    0.6570   -0.6669    0.0000 C   0  0  0  0  0  0  0  0  0  0  0  0
    1.3042   -1.1856    0.0000 N   0  0  0  0  0  0  0  0  0  0  0  0
    2.0501   -0.8250    0.0000 C   0  0  0  0  0  0  0  0  0  0  0  0
    2.0501    0.0000    0.0000 O   0  0  0  0  0  0  0  0  0  0  0  0
    2.7911   -1.1856    0.0000 C   0  0  0  0  0  0  0  0  0  0  0  0
    2.9789   -1.9909    0.0000 N   0  0  0  0  0  0  0  0  0  0  0  0
    3.7939   -2.1094    0.0000 C   0  0  0  0  0  0  0  0  0  0  0  0
    4.0953   -2.8801    0.0000 C   0  0  0  0  0  0  0  0  0  0  0  0
    3.5865   -3.5272    0.0000 C   0  0  0  0  0  0  0  0  0  0  0  0
    3.8829   -4.2929    0.0000 C   0  0  0  0  0  0  0  0  0  0  0  0
    3.3642   -4.9401    0.0000 C   0  0  0  0  0  0  0  0  0  0  0  0
    2.5491   -4.8215    0.0000 C   0  0  0  0  0  0  0  0  0  0  0  0
    2.2527   -4.0558    0.0000 C   0  0  0  0  0  0  0  0  0  0  0  0
    2.7566   -3.4086    0.0000 C   0  0  0  0  0  0  0  0  0  0  0  0
    2.4602   -2.6380    0.0000 C   0  0  0  0  0  0  0  0  0  0  0  0
    1.6351   -2.6380    0.0000 C   0  0  0  0  0  0  0  0  0  0  0  0
    1.3338   -3.4185    0.0000 C   0  0  0  0  0  0  0  0  0  0  0  0
    0.5187   -3.5173    0.0000 C   0  0  0  0  0  0  0  0  0  0  0  0
    0.0000   -2.8801    0.0000 C   0  0  0  0  0  0  0  0  0  0  0  0
    0.2964   -2.0995    0.0000 C   0  0  0  0  0  0  0  0  0  0  0  0
    1.1263   -2.0007    0.0000 C   0  0  0  0  0  0  0  0  0  0  0  0
    0.2174   -4.2929    0.0000 Cl  0  0  0  0  0  0  0  0  0  0  0  0
  1  2  1  0
  2  3  1  0
  2 21  1  0
  3  4  2  0
  3  5  1  0
  5  6  1  0
  6  7  1  0
  6 15  1  0
  7  8  1  0
  8  9  1  0
  9 10  2  0
  9 14  1  0
 10 11  1  0
 11 12  2  0
 12 13  1  0
 13 14  2  0
 14 15  1  0
 15 16  1  0
 16 17  2  0
 16 21  1  0
 17 18  1  0
 18 19  2  0
 18 22  1  0
 19 20  1  0
 20 21  2  0
M  END
>  <Formula>  (592) 
C18H17ClN2O

>  <FW>  (592) 
312.7934

>  <DSSTox_CID>  (592) 
26249

>  <NR-AR>  (592) 
0

>  <NR-AR-LBD>  (592) 
0

>  <NR-ER>  (592) 
0

>  <NR-ER-LBD>  (592) 
0

>  <NR-PPAR-gamma>  (592) 
0

>  <NR-AhR>  (592) 
1

>  <SR-ATAD5>  (592) 
0

>  <SR-MMP>  (592) 
0

>  <SR-p53>  (592) 
1

$$$$
NCGC00181336-01
     RDKit          2D

 20 22  0  0  1  0  0  0  0  0999 V2000
    2.8554   -2.2379    0.0000 N   0  0  0  0  0  0  0  0  0  0  0  0
    2.1094   -2.0057    0.0000 C   0  0  0  0  0  0  0  0  0  0  0  0
    2.1094   -1.1955    0.0000 C   0  0  0  0  0  0  0  0  0  0  0  0
    2.8554   -0.9535    0.0000 N   0  0  0  0  0  0  0  0  0  0  0  0
    3.3198   -1.6055    0.0000 C   0  0  0  0  0  0  0  0  0  0  0  0
    1.4129   -0.7954    0.0000 C   0  0  0  0  0  0  0  0  0  0  0  0
    1.4129   -2.4058    0.0000 N   0  0  0  0  0  0  0  0  0  0  0  0
    0.7311   -1.1955    0.0000 N   0  0  0  0  0  0  0  0  0  0  0  0
    0.7311   -2.0057    0.0000 C   0  0  0  0  0  0  0  0  0  0  0  0
    1.4129    0.0000    0.0000 N   0  0  0  0  0  0  0  0  0  0  0  0
    2.8554   -3.4334    0.0000 C   0  0  0  0  0  0  0  0  0  0  0  0
    1.5068   -3.4334    0.0000 C   0  0  0  0  0  0  0  0  0  0  0  0
    2.1885   -2.9443    0.0000 O   0  0  0  0  0  0  0  0  0  0  0  0
    1.7735   -4.2287    0.0000 C   0  0  0  0  0  0  0  0  0  0  0  0
    2.5985   -4.2287    0.0000 C   0  0  0  0  0  0  0  0  0  0  0  0
    1.3635   -4.9401    0.0000 O   0  0  0  0  0  0  0  0  0  0  0  0
    3.0777   -4.8907    0.0000 O   0  0  0  0  0  0  0  0  0  0  0  0
    0.7114   -3.1666    0.0000 C   0  0  0  0  0  0  0  0  0  0  0  0
    0.1037   -3.7298    0.0000 O   0  0  0  0  0  0  0  0  0  0  0  0
    0.0000   -2.4058    0.0000 F   0  0  0  0  0  0  0  0  0  0  0  0
  1  2  1  0
  1  5  1  0
 11  1  1  1
  2  3  2  0
  2  7  1  0
  3  6  1  0
  3  4  1  0
  4  5  2  0
  6 10  1  0
  6  8  2  0
  7  9  2  0
  8  9  1  0
  9 20  1  0
 11 13  1  0
 11 15  1  0
 12 13  1  0
 12 14  1  0
 12 18  1  1
 14 15  1  0
 14 16  1  6
 15 17  1  1
 18 19  1  0
M  END
>  <Formula>  (593) 
C10H12FN5O4

>  <FW>  (593) 
285.2318

>  <DSSTox_CID>  (593) 
19657

>  <NR-Aromatase>  (593) 
0

>  <NR-AR>  (593) 
0

>  <NR-AR-LBD>  (593) 
0

>  <NR-ER>  (593) 
0

>  <NR-ER-LBD>  (593) 
0

>  <NR-PPAR-gamma>  (593) 
0

>  <NR-AhR>  (593) 
0

>  <SR-ATAD5>  (593) 
0

>  <SR-MMP>  (593) 
0

>  <SR-p53>  (593) 
1

$$$$
NCGC00259784-01
     RDKit          2D

 24 26  0  0  1  0  0  0  0  0999 V2000
    4.0506   -0.7100    0.0000 O   0  0  0  0  0  0  0  0  0  0  0  0
    3.8004   -1.5012    0.0000 C   0  0  0  0  0  0  0  0  0  0  0  0
    3.0092   -1.7582    0.0000 C   0  0  0  0  0  0  0  0  0  0  0  0
    3.0092   -2.5832    0.0000 C   0  0  0  0  0  0  0  0  0  0  0  0
    3.8004   -2.8334    0.0000 O   0  0  0  0  0  0  0  0  0  0  0  0
    4.2805   -2.1639    0.0000 C   0  0  0  0  0  0  0  0  0  0  0  0
    4.6998   -1.4539    0.0000 C   0  0  0  0  0  0  0  0  0  0  0  0
    5.5248   -1.4539    0.0000 C   0  0  0  0  0  0  0  0  0  0  0  0
    5.9372   -2.1639    0.0000 C   0  0  0  0  0  0  0  0  0  0  0  0
    6.7622   -2.1639    0.0000 O   0  0  0  0  0  0  0  0  0  0  0  0
    5.5248   -2.8807    0.0000 C   0  0  0  0  0  0  0  0  0  0  0  0
    4.6998   -2.8807    0.0000 C   0  0  0  0  0  0  0  0  0  0  0  0
    4.2805   -3.6042    0.0000 C   0  0  0  0  0  0  0  0  0  0  0  0
    4.5510   -0.6357    0.0000 O   0  0  0  0  0  0  0  0  0  0  0  0
    5.1867   -0.1082    0.0000 C   0  0  0  0  0  0  0  0  0  0  0  0
    2.2992   -2.9957    0.0000 C   0  0  0  0  0  0  0  0  0  0  0  0
    2.2992   -3.8207    0.0000 Cl  0  0  0  0  0  0  0  0  0  0  0  0
    1.5756   -2.5832    0.0000 C   0  0  0  0  0  0  0  0  0  0  0  0
    0.8588   -2.9957    0.0000 O   0  0  0  0  0  0  0  0  0  0  0  0
    0.0000   -2.0354    0.0000 C   0  0  0  0  0  0  0  0  0  0  0  0
    1.5756   -1.7582    0.0000 C   0  0  0  0  0  0  0  0  0  0  0  0
    2.2992   -1.3389    0.0000 C   0  0  0  0  0  0  0  0  0  0  0  0
    2.2992   -0.5139    0.0000 O   0  0  0  0  0  0  0  0  0  0  0  0
    1.0617    0.0000    0.0000 C   0  0  0  0  0  0  0  0  0  0  0  0
  1  2  2  0
  2  3  1  0
  6  2  1  0
  3  4  2  0
  3 22  1  0
  4  5  1  0
  4 16  1  0
  6  5  1  6
  6  7  1  0
  6 12  1  0
  7  8  2  0
  7 14  1  0
  8  9  1  0
  9 10  2  0
  9 11  1  0
 11 12  1  0
 12 13  1  1
 14 15  1  0
 16 17  1  0
 16 18  2  0
 18 19  1  0
 18 21  1  0
 19 20  1  0
 21 22  2  0
 22 23  1  0
 23 24  1  0
M  END
>  <Formula>  (594) 
C17H17ClO6

>  <FW>  (594) 
352.7663

>  <DSSTox_CID>  (594) 
674

>  <NR-Aromatase>  (594) 
1

>  <NR-AR>  (594) 
0

>  <NR-AR-LBD>  (594) 
0

>  <NR-ER>  (594) 
0

>  <NR-ER-LBD>  (594) 
0

>  <NR-PPAR-gamma>  (594) 
1

>  <NR-AhR>  (594) 
0

>  <SR-ATAD5>  (594) 
1

>  <SR-HSE>  (594) 
0

>  <SR-MMP>  (594) 
0

>  <SR-p53>  (594) 
1

$$$$
NCGC00256353-01
     RDKit          2D

 24 26  0  0  1  0  0  0  0  0999 V2000
    4.0506   -0.7100    0.0000 O   0  0  0  0  0  0  0  0  0  0  0  0
    3.8004   -1.5012    0.0000 C   0  0  0  0  0  0  0  0  0  0  0  0
    3.0092   -1.7582    0.0000 C   0  0  0  0  0  0  0  0  0  0  0  0
    3.0092   -2.5832    0.0000 C   0  0  0  0  0  0  0  0  0  0  0  0
    3.8004   -2.8334    0.0000 O   0  0  0  0  0  0  0  0  0  0  0  0
    4.2805   -2.1639    0.0000 C   0  0  0  0  0  0  0  0  0  0  0  0
    4.6998   -1.4539    0.0000 C   0  0  0  0  0  0  0  0  0  0  0  0
    5.5248   -1.4539    0.0000 C   0  0  0  0  0  0  0  0  0  0  0  0
    5.9372   -2.1639    0.0000 C   0  0  0  0  0  0  0  0  0  0  0  0
    6.7622   -2.1639    0.0000 O   0  0  0  0  0  0  0  0  0  0  0  0
    5.5248   -2.8807    0.0000 C   0  0  0  0  0  0  0  0  0  0  0  0
    4.6998   -2.8807    0.0000 C   0  0  0  0  0  0  0  0  0  0  0  0
    4.2805   -3.6042    0.0000 C   0  0  0  0  0  0  0  0  0  0  0  0
    4.5510   -0.6357    0.0000 O   0  0  0  0  0  0  0  0  0  0  0  0
    5.1867   -0.1082    0.0000 C   0  0  0  0  0  0  0  0  0  0  0  0
    2.2992   -2.9957    0.0000 C   0  0  0  0  0  0  0  0  0  0  0  0
    2.2992   -3.8207    0.0000 Cl  0  0  0  0  0  0  0  0  0  0  0  0
    1.5756   -2.5832    0.0000 C   0  0  0  0  0  0  0  0  0  0  0  0
    0.8588   -2.9957    0.0000 O   0  0  0  0  0  0  0  0  0  0  0  0
    0.0000   -2.0354    0.0000 C   0  0  0  0  0  0  0  0  0  0  0  0
    1.5756   -1.7582    0.0000 C   0  0  0  0  0  0  0  0  0  0  0  0
    2.2992   -1.3389    0.0000 C   0  0  0  0  0  0  0  0  0  0  0  0
    2.2992   -0.5139    0.0000 O   0  0  0  0  0  0  0  0  0  0  0  0
    1.0617    0.0000    0.0000 C   0  0  0  0  0  0  0  0  0  0  0  0
  1  2  2  0
  2  3  1  0
  6  2  1  0
  3  4  2  0
  3 22  1  0
  4  5  1  0
  4 16  1  0
  6  5  1  6
  6  7  1  0
  6 12  1  0
  7  8  2  0
  7 14  1  0
  8  9  1  0
  9 10  2  0
  9 11  1  0
 11 12  1  0
 12 13  1  1
 14 15  1  0
 16 17  1  0
 16 18  2  0
 18 19  1  0
 18 21  1  0
 19 20  1  0
 21 22  2  0
 22 23  1  0
 23 24  1  0
M  END
>  <Formula>  (595) 
C17H17ClO6

>  <FW>  (595) 
352.7663

>  <DSSTox_CID>  (595) 
674

>  <NR-Aromatase>  (595) 
1

>  <NR-AR>  (595) 
0

>  <NR-AR-LBD>  (595) 
0

>  <NR-ER>  (595) 
0

>  <NR-ER-LBD>  (595) 
0

>  <NR-PPAR-gamma>  (595) 
0

>  <SR-ATAD5>  (595) 
1

>  <SR-HSE>  (595) 
0

>  <SR-MMP>  (595) 
0

>  <SR-p53>  (595) 
1

$$$$
NCGC00255843-01
     RDKit          2D

 27 29  0  0  1  0  0  0  0  0999 V2000
    1.4297   -4.4988    0.0000 C   0  0  0  0  0  0  0  0  0  0  0  0
    1.4297   -5.3251    0.0000 C   0  0  0  0  0  0  0  0  0  0  0  0
    0.7148   -4.0857    0.0000 C   0  0  0  0  0  0  0  0  0  0  0  0
    0.7148   -5.7318    0.0000 C   0  0  0  0  0  0  0  0  0  0  0  0
    0.0000   -4.4988    0.0000 C   0  0  0  0  0  0  0  0  0  0  0  0
    0.0000   -5.3251    0.0000 C   0  0  0  0  0  0  0  0  0  0  0  0
    2.1379   -4.0857    0.0000 C   0  0  0  0  0  0  0  0  0  0  0  0
    2.2297   -3.2659    0.0000 C   0  0  0  0  0  0  0  0  0  0  0  0
    2.8921   -4.4201    0.0000 C   0  0  0  0  0  0  0  0  0  0  0  0
    3.0298   -3.0954    0.0000 C   0  0  0  0  0  0  0  0  0  0  0  0
    3.4430   -3.8103    0.0000 N   0  0  0  0  0  0  0  0  0  0  0  0
    3.4627   -2.3937    0.0000 C   0  0  0  0  0  0  0  0  0  0  0  0
    4.5317   -2.6692    0.0000 C   0  0  0  0  0  0  0  0  0  0  0  0
    5.1612   -2.3871    0.0000 C   0  0  0  0  0  0  0  0  0  0  0  0
    4.7415   -3.1020    0.0000 C   0  0  0  0  0  0  0  0  0  0  0  0
    3.6856   -2.8068    0.0000 C   0  0  0  0  0  0  0  0  0  0  0  0
    0.7148   -3.2593    0.0000 C   0  0  0  0  0  0  0  0  0  0  0  0
    0.7148   -6.5581    0.0000 C   0  0  0  0  0  0  0  0  0  0  0  0
    3.0626   -5.2268    0.0000 O   0  0  0  0  0  0  0  0  0  0  0  0
    1.6133   -2.7150    0.0000 O   0  0  0  0  0  0  0  0  0  0  0  0
    1.7838   -1.9084    0.0000 C   0  0  0  0  0  0  0  0  0  0  0  0
    1.1739   -1.3575    0.0000 O   0  0  0  0  0  0  0  0  0  0  0  0
    1.3444   -0.5509    0.0000 C   0  0  0  0  0  0  0  0  0  0  0  0
    0.7345    0.0000    0.0000 C   0  0  0  0  0  0  0  0  0  0  0  0
    2.5708   -1.6526    0.0000 O   0  0  0  0  0  0  0  0  0  0  0  0
    5.7777   -1.8363    0.0000 O   0  0  0  0  0  0  0  0  0  0  0  0
    6.5581   -2.0920    0.0000 C   0  0  0  0  0  0  0  0  0  0  0  0
  1  2  2  0
  1  3  1  0
  1  7  1  0
  2  4  1  0
  3  5  2  0
  3 17  1  0
  4  6  2  0
  4 18  1  0
  5  6  1  0
  7  8  2  0
  7  9  1  0
  8 10  1  0
  8 20  1  0
  9 11  1  0
  9 19  2  0
 10 11  1  0
 10 12  1  6
 10 16  1  0
 12 13  1  0
 14 13  1  0
 14 15  1  0
 14 26  1  6
 15 16  1  0
 20 21  1  0
 21 22  1  0
 21 25  2  0
 22 23  1  0
 23 24  1  0
 26 27  1  0
M  END
>  <Formula>  (596) 
C21H27NO5

>  <FW>  (596) 
373.4428

>  <DSSTox_CID>  (596) 
24342

>  <NR-AR>  (596) 
0

>  <NR-AR-LBD>  (596) 
0

>  <NR-ER-LBD>  (596) 
0

>  <NR-PPAR-gamma>  (596) 
0

>  <NR-AhR>  (596) 
0

>  <SR-ARE>  (596) 
0

>  <SR-ATAD5>  (596) 
0

>  <SR-HSE>  (596) 
0

>  <SR-p53>  (596) 
1

$$$$
NCGC00229704-01
     RDKit          2D

 32 34  0  0  1  0  0  0  0  0999 V2000
    2.1322   -1.2321    0.0000 C   0  0  0  0  0  0  0  0  0  0  0  0
    2.1322   -2.0571    0.0000 C   0  0  0  0  0  0  0  0  0  0  0  0
    2.8393   -0.8143    0.0000 C   0  0  0  0  0  0  0  0  0  0  0  0
    1.4250   -0.8143    0.0000 C   0  0  0  0  0  0  0  0  0  0  0  0
    2.8393   -2.4643    0.0000 C   0  0  0  0  0  0  0  0  0  0  0  0
    1.4250   -2.4643    0.0000 N   0  0  0  0  0  0  0  0  0  0  0  0
    3.5572   -1.2321    0.0000 C   0  0  0  0  0  0  0  0  0  0  0  0
    0.7072   -1.2321    0.0000 N   0  0  0  0  0  0  0  0  0  0  0  0
    1.4250    0.0000    0.0000 O   0  0  0  0  0  0  0  0  0  0  0  0
    3.5572   -2.0571    0.0000 C   0  0  0  0  0  0  0  0  0  0  0  0
    0.7072   -2.0571    0.0000 C   0  0  0  0  0  0  0  0  0  0  0  0
    4.2750   -0.8143    0.0000 C   0  0  0  0  0  0  0  0  0  0  0  0
    0.0000   -2.4643    0.0000 C   0  0  0  0  0  0  0  0  0  0  0  0
    4.9929   -1.2321    0.0000 N   0  0  0  0  0  0  0  0  0  0  0  0
    5.7750   -0.9857    0.0000 C   0  0  0  0  0  0  0  0  0  0  0  0
    4.9929   -2.0571    0.0000 C   0  0  0  0  0  0  0  0  0  0  0  0
    6.4393   -1.4679    0.0000 S   0  0  0  0  0  0  0  0  0  0  0  0
    6.0322   -0.2036    0.0000 C   0  0  0  0  0  0  0  0  0  0  0  0
    7.1036   -0.9857    0.0000 C   0  0  0  0  0  0  0  0  0  0  0  0
    6.8465   -0.2036    0.0000 C   0  0  0  0  0  0  0  0  0  0  0  0
    7.8643   -1.2750    0.0000 C   0  0  0  0  0  0  0  0  0  0  0  0
    8.5821   -0.8679    0.0000 N   0  0  0  0  0  0  0  0  0  0  0  0
    7.8643   -2.1000    0.0000 O   0  0  0  0  0  0  0  0  0  0  0  0
    9.2893   -1.2750    0.0000 C   0  0  0  0  0  0  0  0  0  0  0  0
    9.2893   -2.1000    0.0000 C   0  0  0  0  0  0  0  0  0  0  0  0
   10.0071   -0.8679    0.0000 C   0  0  0  0  0  0  0  0  0  0  0  0
   10.0071   -2.5072    0.0000 C   0  0  0  0  0  0  0  0  0  0  0  0
   10.7143   -1.2750    0.0000 O   0  0  0  0  0  0  0  0  0  0  0  0
   10.0071   -0.0322    0.0000 O   0  0  0  0  0  0  0  0  0  0  0  0
   10.0071   -3.3322    0.0000 C   0  0  0  0  0  0  0  0  0  0  0  0
   10.7143   -3.7393    0.0000 O   0  0  0  0  0  0  0  0  0  0  0  0
    9.2893   -3.7393    0.0000 O   0  0  0  0  0  0  0  0  0  0  0  0
  1  2  1  0
  1  3  2  0
  1  4  1  0
  2  5  2  0
  2  6  1  0
  3  7  1  0
  4  8  1  0
  4  9  2  0
  5 10  1  0
  6 11  2  0
  7 12  1  0
  7 10  2  0
  8 11  1  0
 11 13  1  0
 12 14  1  0
 14 15  1  0
 14 16  1  0
 15 17  1  0
 15 18  2  0
 17 19  1  0
 18 20  1  0
 19 21  1  0
 19 20  2  0
 21 22  1  0
 21 23  2  0
 22 24  1  0
 24 25  1  6
 24 26  1  0
 25 27  1  0
 26 28  1  0
 26 29  2  0
 27 30  1  0
 30 31  1  0
 30 32  2  0
M  END
>  <Formula>  (597) 
C21H22N4O6S

>  <FW>  (597) 
458.4876

>  <DSSTox_CID>  (597) 
26482

>  <NR-Aromatase>  (597) 
0

>  <NR-AR>  (597) 
0

>  <NR-AR-LBD>  (597) 
0

>  <NR-ER>  (597) 
0

>  <NR-ER-LBD>  (597) 
0

>  <NR-AhR>  (597) 
0

>  <SR-ARE>  (597) 
0

>  <SR-ATAD5>  (597) 
0

>  <SR-HSE>  (597) 
0

>  <SR-MMP>  (597) 
0

>  <SR-p53>  (597) 
1

$$$$
NCGC00255140-01
     RDKit          2D

 16 18  0  0  1  0  0  0  0  0999 V2000
    3.8039   -1.4077    0.0000 C   0  0  0  0  0  0  0  0  0  0  0  0
    3.5403   -0.6170    0.0000 N   0  0  0  0  0  0  0  0  0  0  0  0
    2.7136   -0.6170    0.0000 C   0  0  0  0  0  0  0  0  0  0  0  0
    2.4561   -1.4077    0.0000 C   0  0  0  0  0  0  0  0  0  0  0  0
    4.6066   -1.5875    0.0000 N   0  0  0  0  0  0  0  0  0  0  0  0
    3.1270   -1.8750    0.0000 O   0  0  0  0  0  0  0  0  0  0  0  0
    2.0487   -0.1438    0.0000 O   0  0  0  0  0  0  0  0  0  0  0  0
    4.1094    0.0000    0.0000 C   0  0  0  0  0  0  0  0  0  0  0  0
    1.6294   -1.4077    0.0000 C   0  0  0  0  0  0  0  0  0  0  0  0
    5.1517   -0.9704    0.0000 C   0  0  0  0  0  0  0  0  0  0  0  0
    1.3958   -0.6410    0.0000 C   0  0  0  0  0  0  0  0  0  0  0  0
    4.9061   -0.2037    0.0000 C   0  0  0  0  0  0  0  0  0  0  0  0
    5.9904   -1.1382    0.0000 N   0  0  0  0  0  0  0  0  0  0  0  0
    1.1262   -2.0727    0.0000 O   0  0  0  0  0  0  0  0  0  0  0  0
    0.5751   -0.4313    0.0000 C   0  0  0  0  0  0  0  0  0  0  0  0
    0.0000   -1.0483    0.0000 O   0  0  0  0  0  0  0  0  0  0  0  0
  1  2  1  0
  1  5  2  0
  1  6  1  0
  3  2  1  0
  2  8  1  0
  3  7  1  1
  3  4  1  0
  4  6  1  1
  4  9  1  0
  5 10  1  0
  7 11  1  0
  8 12  2  0
  9 11  1  0
  9 14  1  6
 10 12  1  0
 10 13  2  0
 11 15  1  1
 15 16  1  0
M  END
>  <Formula>  (598) 
C9H11N3O4

>  <FW>  (598) 
225.2013

>  <DSSTox_CID>  (598) 
357

>  <NR-Aromatase>  (598) 
0

>  <NR-AR>  (598) 
0

>  <NR-AR-LBD>  (598) 
0

>  <NR-ER>  (598) 
0

>  <NR-ER-LBD>  (598) 
0

>  <NR-PPAR-gamma>  (598) 
0

>  <NR-AhR>  (598) 
0

>  <SR-ARE>  (598) 
0

>  <SR-ATAD5>  (598) 
0

>  <SR-HSE>  (598) 
0

>  <SR-MMP>  (598) 
0

>  <SR-p53>  (598) 
1

$$$$
NCGC00183367-01
     RDKit          2D

 29 32  0  0  1  0  0  0  0  0999 V2000
    4.3251   -2.2666    0.0000 C   0  0  0  0  0  0  0  0  0  0  0  0
    5.1260   -2.0264    0.0000 C   0  0  0  0  0  0  0  0  0  0  0  0
    2.1626   -3.5241    0.0000 C   0  0  0  0  0  0  0  0  0  0  0  0
    3.6042   -3.5241    0.0000 C   0  0  0  0  0  0  0  0  0  0  0  0
    4.3251   -3.1237    0.0000 C   0  0  0  0  0  0  0  0  0  0  0  0
    2.8834   -3.1237    0.0000 C   0  0  0  0  0  0  0  0  0  0  0  0
    2.1626   -4.3491    0.0000 C   0  0  0  0  0  0  0  0  0  0  0  0
    3.6042   -1.8662    0.0000 C   0  0  0  0  0  0  0  0  0  0  0  0
    2.8834   -2.2666    0.0000 C   0  0  0  0  0  0  0  0  0  0  0  0
    5.1260   -1.2014    0.0000 C   0  0  0  0  0  0  0  0  0  0  0  0
    1.4737   -4.7496    0.0000 C   0  0  0  0  0  0  0  0  0  0  0  0
    5.6066   -2.6911    0.0000 C   0  0  0  0  0  0  0  0  0  0  0  0
    5.1260   -3.3560    0.0000 C   0  0  0  0  0  0  0  0  0  0  0  0
    3.6042   -4.3491    0.0000 C   0  0  0  0  0  0  0  0  0  0  0  0
    1.4737   -3.1237    0.0000 C   0  0  0  0  0  0  0  0  0  0  0  0
    2.8834   -4.7496    0.0000 C   0  0  0  0  0  0  0  0  0  0  0  0
    0.7128   -4.3491    0.0000 C   0  0  0  0  0  0  0  0  0  0  0  0
    7.2965   -0.8250    0.0000 C   0  0  0  0  0  0  0  0  0  0  0  0
    5.8469   -0.7769    0.0000 C   0  0  0  0  0  0  0  0  0  0  0  0
    4.4292   -0.7769    0.0000 O   0  0  0  0  0  0  0  0  0  0  0  0
    6.5677   -1.2254    0.0000 O   0  0  0  0  0  0  0  0  0  0  0  0
    8.0094   -1.2495    0.0000 O   0  0  0  0  0  0  0  0  0  0  0  0
    0.0000   -4.7175    0.0000 O   0  0  0  0  0  0  0  0  0  0  0  0
    5.9510   -2.0744    0.0000 O   0  0  0  0  0  0  0  0  0  0  0  0
    4.3011   -1.4417    0.0000 C   0  0  0  0  0  0  0  0  0  0  0  0
    0.7128   -3.5241    0.0000 C   0  0  0  0  0  0  0  0  0  0  0  0
    2.1626   -1.8342    0.0000 O   0  0  0  0  0  0  0  0  0  0  0  0
    2.1626   -2.6911    0.0000 C   0  0  0  0  0  0  0  0  0  0  0  0
    7.2965    0.0000    0.0000 C   0  0  0  0  0  0  0  0  0  0  0  0
  1  2  1  0
  1  5  1  0
  1  8  1  0
  1 25  1  1
  2 10  1  0
  2 12  1  0
  2 24  1  6
  3  6  1  0
  3  7  1  0
  3 15  1  0
  3 28  1  1
  4  5  1  0
  4 14  1  0
  4  6  1  0
  5 13  1  0
  6  9  1  0
  7 11  2  0
  7 16  1  0
  8  9  1  0
  9 27  1  1
 10 19  1  0
 10 20  2  0
 11 17  1  0
 12 13  1  0
 14 16  1  0
 15 26  1  0
 17 26  1  0
 17 23  2  0
 18 21  1  0
 18 22  2  0
 18 29  1  0
 19 21  1  0
M  END
>  <Formula>  (599) 
C23H32O6

>  <FW>  (599) 
404.4966

>  <DSSTox_CID>  (599) 
28612

>  <NR-AR>  (599) 
1

>  <NR-AR-LBD>  (599) 
1

>  <NR-ER-LBD>  (599) 
0

>  <NR-PPAR-gamma>  (599) 
0

>  <NR-AhR>  (599) 
0

>  <SR-ATAD5>  (599) 
0

>  <SR-MMP>  (599) 
0

>  <SR-p53>  (599) 
0

$$$$
NCGC00095078-01
     RDKit          2D

 32 35  0  0  1  0  0  0  0  0999 V2000
    4.2932   -1.4898    0.0000 C   0  0  0  0  0  0  0  0  0  0  0  0
    2.8755   -2.2988    0.0000 C   0  0  0  0  0  0  0  0  0  0  0  0
    5.0622   -1.2575    0.0000 C   0  0  0  0  0  0  0  0  0  0  0  0
    2.1547   -2.7153    0.0000 C   0  0  0  0  0  0  0  0  0  0  0  0
    4.2932   -2.2988    0.0000 C   0  0  0  0  0  0  0  0  0  0  0  0
    3.5884   -2.7153    0.0000 C   0  0  0  0  0  0  0  0  0  0  0  0
    2.1547   -3.5403    0.0000 C   0  0  0  0  0  0  0  0  0  0  0  0
    2.8755   -1.4898    0.0000 C   0  0  0  0  0  0  0  0  0  0  0  0
    3.5884   -1.0733    0.0000 C   0  0  0  0  0  0  0  0  0  0  0  0
    5.5428   -1.8983    0.0000 C   0  0  0  0  0  0  0  0  0  0  0  0
    1.4498   -2.2988    0.0000 C   0  0  0  0  0  0  0  0  0  0  0  0
    5.0622   -2.5551    0.0000 C   0  0  0  0  0  0  0  0  0  0  0  0
    1.4498   -3.9488    0.0000 C   0  0  0  0  0  0  0  0  0  0  0  0
    5.0622   -0.4165    0.0000 C   0  0  0  0  0  0  0  0  0  0  0  0
    5.8792   -1.3216    0.0000 O   0  0  0  0  0  0  0  0  0  0  0  0
    3.5884   -3.5403    0.0000 C   0  0  0  0  0  0  0  0  0  0  0  0
    0.7289   -2.7153    0.0000 C   0  0  0  0  0  0  0  0  0  0  0  0
    0.7289   -3.5403    0.0000 C   0  0  0  0  0  0  0  0  0  0  0  0
    6.6001   -0.8971    0.0000 C   0  0  0  0  0  0  0  0  0  0  0  0
    2.8755   -3.9488    0.0000 C   0  0  0  0  0  0  0  0  0  0  0  0
    2.8755   -3.1238    0.0000 F   0  0  0  0  0  0  0  0  0  0  0  0
    5.7670    0.0000    0.0000 O   0  0  0  0  0  0  0  0  0  0  0  0
    6.6001   -0.0641    0.0000 O   0  0  0  0  0  0  0  0  0  0  0  0
    0.0000   -3.9568    0.0000 O   0  0  0  0  0  0  0  0  0  0  0  0
    4.2932   -0.6488    0.0000 C   0  0  0  0  0  0  0  0  0  0  0  0
    2.1386   -1.0733    0.0000 O   0  0  0  0  0  0  0  0  0  0  0  0
    2.1547   -1.9063    0.0000 C   0  0  0  0  0  0  0  0  0  0  0  0
    4.3493    0.0000    0.0000 C   0  0  0  0  0  0  0  0  0  0  0  0
    3.6604   -0.4165    0.0000 Cl  0  0  0  0  0  0  0  0  0  0  0  0
    6.3678   -1.8983    0.0000 C   0  0  0  0  0  0  0  0  0  0  0  0
    7.3129   -1.3216    0.0000 C   0  0  0  0  0  0  0  0  0  0  0  0
    8.0098   -0.8891    0.0000 C   0  0  0  0  0  0  0  0  0  0  0  0
  1  3  1  0
  1  5  1  0
  1  9  1  0
  1 25  1  1
  2  8  1  0
  2  4  1  0
  2 21  1  6
  2  6  1  0
  3 10  1  0
  3 14  1  0
  3 15  1  6
  4  7  1  0
  4 11  1  0
  4 27  1  1
  5  6  1  0
  5 12  1  1
  6 16  1  6
  7 13  2  0
  7 20  1  0
  8  9  1  0
  8 26  1  1
 10 30  1  1
 10 12  1  0
 11 17  2  0
 13 18  1  0
 14 22  2  0
 14 28  1  0
 15 19  1  0
 16 20  1  0
 17 18  1  0
 18 24  2  0
 19 23  2  0
 19 31  1  0
 28 29  1  0
 31 32  1  0
M  END
>  <Formula>  (600) 
C25H32ClFO5

>  <FW>  (600) 
466.9700

>  <DSSTox_CID>  (600) 
25907

>  <NR-AR>  (600) 
1

>  <NR-AR-LBD>  (600) 
1

>  <NR-ER>  (600) 
0

>  <NR-ER-LBD>  (600) 
0

>  <NR-PPAR-gamma>  (600) 
0

>  <NR-AhR>  (600) 
1

>  <SR-ATAD5>  (600) 
0

>  <SR-MMP>  (600) 
1

>  <SR-p53>  (600) 
0

$$$$
NCGC00255195-01
     RDKit          2D

 28 31  0  0  1  0  0  0  0  0999 V2000
    4.3068   -1.6544    0.0000 C   0  0  0  0  0  0  0  0  0  0  0  0
    2.8802   -2.4850    0.0000 C   0  0  0  0  0  0  0  0  0  0  0  0
    2.1635   -2.8935    0.0000 C   0  0  0  0  0  0  0  0  0  0  0  0
    4.3068   -2.4850    0.0000 C   0  0  0  0  0  0  0  0  0  0  0  0
    3.5901   -2.8935    0.0000 C   0  0  0  0  0  0  0  0  0  0  0  0
    5.0972   -1.3932    0.0000 C   0  0  0  0  0  0  0  0  0  0  0  0
    2.1635   -3.7241    0.0000 C   0  0  0  0  0  0  0  0  0  0  0  0
    2.8802   -1.6544    0.0000 C   0  0  0  0  0  0  0  0  0  0  0  0
    3.5901   -1.2459    0.0000 C   0  0  0  0  0  0  0  0  0  0  0  0
    5.5862   -2.0697    0.0000 C   0  0  0  0  0  0  0  0  0  0  0  0
    1.4535   -2.4850    0.0000 C   0  0  0  0  0  0  0  0  0  0  0  0
    5.0972   -2.7261    0.0000 C   0  0  0  0  0  0  0  0  0  0  0  0
    1.4535   -4.1394    0.0000 C   0  0  0  0  0  0  0  0  0  0  0  0
    5.3182   -0.5961    0.0000 C   0  0  0  0  0  0  0  0  0  0  0  0
    3.5901   -3.7241    0.0000 C   0  0  0  0  0  0  0  0  0  0  0  0
    0.7368   -2.8935    0.0000 C   0  0  0  0  0  0  0  0  0  0  0  0
    0.7368   -3.7241    0.0000 C   0  0  0  0  0  0  0  0  0  0  0  0
    2.8802   -4.1394    0.0000 C   0  0  0  0  0  0  0  0  0  0  0  0
    2.8735   -3.1749    0.0000 F   0  0  0  0  0  0  0  0  0  0  0  0
    4.7355    0.0000    0.0000 O   0  0  0  0  0  0  0  0  0  0  0  0
    0.0000   -4.1461    0.0000 O   0  0  0  0  0  0  0  0  0  0  0  0
    5.9211   -1.3932    0.0000 O   0  0  0  0  0  0  0  0  0  0  0  0
    4.3068   -0.8105    0.0000 C   0  0  0  0  0  0  0  0  0  0  0  0
    2.1500   -1.2257    0.0000 O   0  0  0  0  0  0  0  0  0  0  0  0
    2.1635   -2.0697    0.0000 C   0  0  0  0  0  0  0  0  0  0  0  0
    6.4100   -2.0630    0.0000 C   0  0  0  0  0  0  0  0  0  0  0  0
    6.1153   -0.3885    0.0000 C   0  0  0  0  0  0  0  0  0  0  0  0
    6.6980   -0.9846    0.0000 O   0  0  0  0  0  0  0  0  0  0  0  0
  1  4  1  0
  1  6  1  0
  1  9  1  0
  1 23  1  1
  2  8  1  0
  2  3  1  0
  2 19  1  6
  2  5  1  0
  3  7  1  0
  3 11  1  0
  3 25  1  1
  4  5  1  0
  4 12  1  1
  5 15  1  6
  6 10  1  0
  6 14  1  0
  6 22  1  6
  7 13  2  0
  7 18  1  0
  8  9  1  0
  8 24  1  1
 10 26  1  1
 10 12  1  0
 11 16  2  0
 13 17  1  0
 14 20  2  0
 14 27  1  0
 15 18  1  0
 16 17  1  0
 17 21  2  0
 27 28  1  0
M  END
>  <Formula>  (601) 
C22H29FO5

>  <FW>  (601) 
392.4611

>  <DSSTox_CID>  (601) 
2667

>  <NR-AR>  (601) 
1

>  <NR-AR-LBD>  (601) 
1

>  <NR-ER-LBD>  (601) 
0

>  <NR-PPAR-gamma>  (601) 
0

>  <NR-AhR>  (601) 
1

>  <SR-ARE>  (601) 
0

>  <SR-ATAD5>  (601) 
0

>  <SR-HSE>  (601) 
0

>  <SR-MMP>  (601) 
0

>  <SR-p53>  (601) 
0

$$$$
NCGC00015948-02
     RDKit          2D

 29 33  0  0  1  0  0  0  0  0999 V2000
    2.1409   -3.0677    0.0000 C   0  0  0  0  0  0  0  0  0  0  0  0
    2.1409   -3.8771    0.0000 C   0  0  0  0  0  0  0  0  0  0  0  0
    1.4294   -2.6434    0.0000 C   0  0  0  0  0  0  0  0  0  0  0  0
    1.4294   -4.3014    0.0000 C   0  0  0  0  0  0  0  0  0  0  0  0
    0.7310   -3.0677    0.0000 C   0  0  0  0  0  0  0  0  0  0  0  0
    0.7310   -3.8771    0.0000 C   0  0  0  0  0  0  0  0  0  0  0  0
    2.8719   -2.6434    0.0000 C   0  0  0  0  0  0  0  0  0  0  0  0
    3.5703   -3.0677    0.0000 C   0  0  0  0  0  0  0  0  0  0  0  0
    2.8719   -4.3014    0.0000 C   0  0  0  0  0  0  0  0  0  0  0  0
    3.5703   -3.8967    0.0000 C   0  0  0  0  0  0  0  0  0  0  0  0
    2.8719   -1.8276    0.0000 C   0  0  0  0  0  0  0  0  0  0  0  0
    3.5703   -1.4099    0.0000 C   0  0  0  0  0  0  0  0  0  0  0  0
    4.2883   -2.6434    0.0000 C   0  0  0  0  0  0  0  0  0  0  0  0
    4.2883   -1.8276    0.0000 C   0  0  0  0  0  0  0  0  0  0  0  0
    5.0650   -2.8980    0.0000 C   0  0  0  0  0  0  0  0  0  0  0  0
    5.5611   -2.2388    0.0000 C   0  0  0  0  0  0  0  0  0  0  0  0
    5.0650   -1.5665    0.0000 C   0  0  0  0  0  0  0  0  0  0  0  0
    4.5951   -0.9073    0.0000 C   0  0  0  0  0  0  0  0  0  0  0  0
    5.8548   -1.3119    0.0000 O   0  0  0  0  0  0  0  0  0  0  0  0
    5.0781   -0.2284    0.0000 C   0  0  0  0  0  0  0  0  0  0  0  0
    5.8548   -0.4961    0.0000 C   0  0  0  0  0  0  0  0  0  0  0  0
    4.2426   -0.9986    0.0000 C   0  0  0  0  0  0  0  0  0  0  0  0
    0.0000   -4.3014    0.0000 O   0  0  0  0  0  0  0  0  0  0  0  0
    6.5271    0.0000    0.0000 O   0  0  0  0  0  0  0  0  0  0  0  0
    2.1409   -2.2257    0.0000 C   0  0  0  0  0  0  0  0  0  0  0  0
    4.2883   -4.3014    0.0000 S   0  0  0  0  0  0  0  0  0  0  0  0
    4.2883   -5.1303    0.0000 C   0  0  0  0  0  0  0  0  0  0  0  0
    4.9998   -5.5415    0.0000 O   0  0  0  0  0  0  0  0  0  0  0  0
    3.5703   -5.5415    0.0000 C   0  0  0  0  0  0  0  0  0  0  0  0
  1  3  1  0
  1  7  1  0
  1  2  1  0
  1 25  1  1
  2  4  2  0
  2  9  1  0
  3  5  1  0
  4  6  1  0
  5  6  1  0
  6 23  2  0
  7 11  1  1
  7  8  1  0
  8 10  1  6
  8 13  1  0
  9 10  1  0
 10 26  1  6
 11 12  1  0
 12 14  1  0
 13 15  1  1
 13 14  1  0
 14 17  1  0
 14 22  1  1
 15 16  1  0
 17 16  1  6
 17 18  1  0
 17 19  1  0
 18 20  1  0
 19 21  1  0
 20 21  1  0
 21 24  2  0
 26 27  1  0
 27 28  2  0
 27 29  1  0
M  END
>  <Formula>  (602) 
C24H32O4S

>  <FW>  (602) 
416.5735

>  <DSSTox_CID>  (602) 
14186

>  <NR-Aromatase>  (602) 
1

>  <NR-AR>  (602) 
1

>  <NR-AR-LBD>  (602) 
1

>  <NR-ER>  (602) 
0

>  <NR-ER-LBD>  (602) 
0

>  <NR-AhR>  (602) 
0

>  <SR-ATAD5>  (602) 
0

$$$$
NCGC00022680-04
     RDKit          2D

 28 31  0  0  1  0  0  0  0  0999 V2000
    5.4043    0.0000    0.0000 C   0  0  0  0  0  0  0  0  0  0  0  0
    4.8176   -0.5578    0.0000 C   0  0  0  0  0  0  0  0  0  0  0  0
    4.0134   -0.3477    0.0000 O   0  0  0  0  0  0  0  0  0  0  0  0
    5.0784   -1.6083    0.0000 C   0  0  0  0  0  0  0  0  0  0  0  0
    5.5565   -2.2748    0.0000 C   0  0  0  0  0  0  0  0  0  0  0  0
    5.0638   -2.9485    0.0000 C   0  0  0  0  0  0  0  0  0  0  0  0
    4.2887   -2.6877    0.0000 C   0  0  0  0  0  0  0  0  0  0  0  0
    3.5643   -3.0934    0.0000 C   0  0  0  0  0  0  0  0  0  0  0  0
    3.5643   -3.9265    0.0000 C   0  0  0  0  0  0  0  0  0  0  0  0
    2.8471   -4.3394    0.0000 C   0  0  0  0  0  0  0  0  0  0  0  0
    2.8471   -5.1652    0.0000 Cl  0  0  0  0  0  0  0  0  0  0  0  0
    2.1371   -3.9265    0.0000 C   0  0  0  0  0  0  0  0  0  0  0  0
    1.4271   -4.3394    0.0000 C   0  0  0  0  0  0  0  0  0  0  0  0
    0.7100   -3.9265    0.0000 C   0  0  0  0  0  0  0  0  0  0  0  0
    0.0000   -4.3394    0.0000 O   0  0  0  0  0  0  0  0  0  0  0  0
    0.7172   -3.0934    0.0000 C   0  0  0  0  0  0  0  0  0  0  0  0
    1.4271   -2.6877    0.0000 C   0  0  0  0  0  0  0  0  0  0  0  0
    2.1371   -3.1079    0.0000 C   0  0  0  0  0  0  0  0  0  0  0  0
    2.1516   -2.2748    0.0000 C   0  0  0  0  0  0  0  0  0  0  0  0
    2.8543   -2.6877    0.0000 C   0  0  0  0  0  0  0  0  0  0  0  0
    2.8543   -1.8691    0.0000 C   0  0  0  0  0  0  0  0  0  0  0  0
    3.5787   -1.4489    0.0000 C   0  0  0  0  0  0  0  0  0  0  0  0
    4.2887   -1.8691    0.0000 C   0  0  0  0  0  0  0  0  0  0  0  0
    4.2235   -1.0359    0.0000 C   0  0  0  0  0  0  0  0  0  0  0  0
    5.8172   -1.2605    0.0000 O   0  0  0  0  0  0  0  0  0  0  0  0
    6.4983   -1.7387    0.0000 C   0  0  0  0  0  0  0  0  0  0  0  0
    7.2444   -1.3909    0.0000 C   0  0  0  0  0  0  0  0  0  0  0  0
    6.4258   -2.5573    0.0000 O   0  0  0  0  0  0  0  0  0  0  0  0
  1  2  1  0
  2  3  2  0
  4  2  1  0
  4  5  1  0
  4 23  1  0
  4 25  1  6
  5  6  1  0
  7  6  1  1
  7  8  1  0
  7 23  1  0
  8  9  1  6
  8 20  1  0
  9 10  2  0
 10 11  1  0
 10 12  1  0
 12 13  2  0
 12 18  1  0
 13 14  1  0
 14 15  2  0
 14 16  1  0
 16 17  1  0
 17 18  1  0
 18 19  1  1
 18 20  1  0
 20 21  1  1
 21 22  1  0
 22 23  1  0
 23 24  1  1
 25 26  1  0
 26 27  1  0
 26 28  2  0
M  END
>  <Formula>  (603) 
C23H29ClO4

>  <FW>  (603) 
404.9270

>  <DSSTox_CID>  (603) 
274

>  <NR-AR>  (603) 
1

>  <NR-AR-LBD>  (603) 
1

>  <NR-ER-LBD>  (603) 
0

>  <NR-PPAR-gamma>  (603) 
0

>  <NR-AhR>  (603) 
0

>  <SR-ATAD5>  (603) 
0

>  <SR-p53>  (603) 
1

$$$$
NCGC00160534-01
     RDKit          2D

 29 32  0  0  1  0  0  0  0  0999 V2000
    4.2750   -1.6410    0.0000 C   0  0  0  0  0  0  0  0  0  0  0  0
    2.8665   -2.4791    0.0000 C   0  0  0  0  0  0  0  0  0  0  0  0
    5.0920   -1.3945    0.0000 C   0  0  0  0  0  0  0  0  0  0  0  0
    2.1763   -2.8594    0.0000 C   0  0  0  0  0  0  0  0  0  0  0  0
    3.5989   -2.8594    0.0000 C   0  0  0  0  0  0  0  0  0  0  0  0
    4.2750   -2.4580    0.0000 C   0  0  0  0  0  0  0  0  0  0  0  0
    2.1763   -3.6905    0.0000 C   0  0  0  0  0  0  0  0  0  0  0  0
    2.8735   -1.6551    0.0000 C   0  0  0  0  0  0  0  0  0  0  0  0
    3.5778   -1.2255    0.0000 C   0  0  0  0  0  0  0  0  0  0  0  0
    1.4438   -4.1201    0.0000 C   0  0  0  0  0  0  0  0  0  0  0  0
    5.5498   -2.0424    0.0000 C   0  0  0  0  0  0  0  0  0  0  0  0
    5.7822   -1.3945    0.0000 O   0  0  0  0  0  0  0  0  0  0  0  0
    5.0920   -2.6974    0.0000 C   0  0  0  0  0  0  0  0  0  0  0  0
    3.5989   -3.6905    0.0000 C   0  0  0  0  0  0  0  0  0  0  0  0
    1.4438   -2.4791    0.0000 C   0  0  0  0  0  0  0  0  0  0  0  0
    5.2892   -0.5916    0.0000 C   0  0  0  0  0  0  0  0  0  0  0  0
    6.2048   -2.0988    0.0000 C   0  0  0  0  0  0  0  0  0  0  0  0
    2.8665   -4.1201    0.0000 C   0  0  0  0  0  0  0  0  0  0  0  0
    0.7184   -3.6905    0.0000 C   0  0  0  0  0  0  0  0  0  0  0  0
    2.8665   -3.2820    0.0000 F   0  0  0  0  0  0  0  0  0  0  0  0
    7.0429   -2.0988    0.0000 O   0  0  0  0  0  0  0  0  0  0  0  0
    4.7117    0.0000    0.0000 O   0  0  0  0  0  0  0  0  0  0  0  0
    0.0000   -4.1201    0.0000 O   0  0  0  0  0  0  0  0  0  0  0  0
    4.2750   -0.8381    0.0000 C   0  0  0  0  0  0  0  0  0  0  0  0
    0.7184   -2.8594    0.0000 C   0  0  0  0  0  0  0  0  0  0  0  0
    2.1551   -1.2184    0.0000 O   0  0  0  0  0  0  0  0  0  0  0  0
    2.1763   -2.0424    0.0000 C   0  0  0  0  0  0  0  0  0  0  0  0
    5.7822   -2.7890    0.0000 C   0  0  0  0  0  0  0  0  0  0  0  0
    6.0991   -0.4015    0.0000 C   0  0  0  0  0  0  0  0  0  0  0  0
  1  3  1  0
  1  6  1  0
  1  9  1  0
  1 24  1  1
  2  8  1  0
  2  4  1  0
  2 20  1  6
  2  5  1  0
  3 11  1  0
  3 12  1  6
  3 16  1  0
  4  7  1  0
  4 15  1  0
  4 27  1  1
  5  6  1  0
  5 14  1  6
  6 13  1  1
  7 10  2  0
  7 18  1  0
  8  9  1  0
  8 26  1  1
 10 19  1  0
 11 13  1  0
 12 17  1  0
 14 18  1  0
 15 25  1  0
 16 22  2  0
 16 29  1  0
 17 21  2  0
 17 28  1  0
 19 25  1  0
 19 23  2  0
M  END
>  <Formula>  (604) 
C23H31FO5

>  <FW>  (604) 
406.4876

>  <DSSTox_CID>  (604) 
26210

>  <NR-AR>  (604) 
1

>  <NR-ER>  (604) 
1

>  <NR-PPAR-gamma>  (604) 
0

>  <SR-ATAD5>  (604) 
0

>  <SR-MMP>  (604) 
0

>  <SR-p53>  (604) 
0

$$$$
NCGC00016566-01
     RDKit          2D

 31 34  0  0  1  0  0  0  0  0999 V2000
    4.3041   -1.6524    0.0000 C   0  0  0  0  0  0  0  0  0  0  0  0
    2.8775   -2.4906    0.0000 C   0  0  0  0  0  0  0  0  0  0  0  0
    2.1682   -2.8936    0.0000 C   0  0  0  0  0  0  0  0  0  0  0  0
    4.3041   -2.4906    0.0000 C   0  0  0  0  0  0  0  0  0  0  0  0
    5.0941   -1.3944    0.0000 C   0  0  0  0  0  0  0  0  0  0  0  0
    3.5949   -2.8936    0.0000 C   0  0  0  0  0  0  0  0  0  0  0  0
    2.1682   -3.7158    0.0000 C   0  0  0  0  0  0  0  0  0  0  0  0
    2.8775   -1.6524    0.0000 C   0  0  0  0  0  0  0  0  0  0  0  0
    3.5949   -1.2413    0.0000 C   0  0  0  0  0  0  0  0  0  0  0  0
    5.5777   -2.0554    0.0000 C   0  0  0  0  0  0  0  0  0  0  0  0
    1.4669   -2.4906    0.0000 C   0  0  0  0  0  0  0  0  0  0  0  0
    5.0941   -2.7244    0.0000 C   0  0  0  0  0  0  0  0  0  0  0  0
    5.3198   -0.5965    0.0000 C   0  0  0  0  0  0  0  0  0  0  0  0
    1.4669   -4.1188    0.0000 C   0  0  0  0  0  0  0  0  0  0  0  0
    3.5949   -3.7158    0.0000 C   0  0  0  0  0  0  0  0  0  0  0  0
    0.7335   -2.8936    0.0000 C   0  0  0  0  0  0  0  0  0  0  0  0
    0.7335   -3.7158    0.0000 C   0  0  0  0  0  0  0  0  0  0  0  0
    2.8775   -4.1188    0.0000 C   0  0  0  0  0  0  0  0  0  0  0  0
    2.8695   -3.1919    0.0000 F   0  0  0  0  0  0  0  0  0  0  0  0
    6.1177   -0.3869    0.0000 C   0  0  0  0  0  0  0  0  0  0  0  0
    4.7314    0.0000    0.0000 O   0  0  0  0  0  0  0  0  0  0  0  0
    6.6981   -0.9914    0.0000 O   0  0  0  0  0  0  0  0  0  0  0  0
    0.0000   -4.1510    0.0000 O   0  0  0  0  0  0  0  0  0  0  0  0
    5.9404   -1.3944    0.0000 O   0  0  0  0  0  0  0  0  0  0  0  0
    4.3041   -0.8222    0.0000 C   0  0  0  0  0  0  0  0  0  0  0  0
    2.1521   -1.2332    0.0000 O   0  0  0  0  0  0  0  0  0  0  0  0
    2.1682   -2.0554    0.0000 C   0  0  0  0  0  0  0  0  0  0  0  0
    6.4159   -2.0554    0.0000 C   0  0  0  0  0  0  0  0  0  0  0  0
    7.5041   -0.7899    0.0000 C   0  0  0  0  0  0  0  0  0  0  0  0
    7.7217   -0.0081    0.0000 O   0  0  0  0  0  0  0  0  0  0  0  0
    8.0602   -1.4025    0.0000 C   0  0  0  0  0  0  0  0  0  0  0  0
  1  4  1  0
  1  5  1  0
  1  9  1  0
  1 25  1  1
  2  8  1  0
  2  3  1  0
  2 19  1  6
  2  6  1  0
  3  7  1  0
  3 11  1  0
  3 27  1  1
  4  6  1  0
  4 12  1  1
  5 10  1  0
  5 13  1  0
  5 24  1  6
  6 15  1  6
  7 14  2  0
  7 18  1  0
  8  9  1  0
  8 26  1  1
 10 28  1  6
 10 12  1  0
 11 16  2  0
 13 20  1  0
 13 21  2  0
 14 17  1  0
 15 18  1  0
 16 17  1  0
 17 23  2  0
 20 22  1  0
 22 29  1  0
 29 30  2  0
 29 31  1  0
M  END
>  <Formula>  (605) 
C24H31FO6

>  <FW>  (605) 
434.4977

>  <DSSTox_CID>  (605) 
2901

>  <NR-AR>  (605) 
1

>  <NR-AR-LBD>  (605) 
1

>  <NR-ER>  (605) 
0

>  <NR-PPAR-gamma>  (605) 
0

>  <SR-MMP>  (605) 
0

>  <SR-p53>  (605) 
0

$$$$
NCGC00094596-03
     RDKit          2D

 36 39  0  0  1  0  0  0  0  0999 V2000
    4.3093   -3.5531    0.0000 C   0  0  0  0  0  0  0  0  0  0  0  0
    2.8778   -4.3901    0.0000 C   0  0  0  0  0  0  0  0  0  0  0  0
    2.1583   -4.7938    0.0000 C   0  0  0  0  0  0  0  0  0  0  0  0
    4.3093   -4.3901    0.0000 C   0  0  0  0  0  0  0  0  0  0  0  0
    3.5825   -4.7938    0.0000 C   0  0  0  0  0  0  0  0  0  0  0  0
    5.0948   -3.3036    0.0000 C   0  0  0  0  0  0  0  0  0  0  0  0
    2.1583   -5.6234    0.0000 C   0  0  0  0  0  0  0  0  0  0  0  0
    2.8778   -3.5531    0.0000 C   0  0  0  0  0  0  0  0  0  0  0  0
    3.5825   -3.1568    0.0000 C   0  0  0  0  0  0  0  0  0  0  0  0
    5.5720   -3.9716    0.0000 C   0  0  0  0  0  0  0  0  0  0  0  0
    1.4536   -4.3901    0.0000 C   0  0  0  0  0  0  0  0  0  0  0  0
    5.0948   -4.6397    0.0000 C   0  0  0  0  0  0  0  0  0  0  0  0
    1.4536   -6.0492    0.0000 C   0  0  0  0  0  0  0  0  0  0  0  0
    5.0948   -2.4813    0.0000 C   0  0  0  0  0  0  0  0  0  0  0  0
    3.5825   -5.6234    0.0000 C   0  0  0  0  0  0  0  0  0  0  0  0
    0.7341   -4.7938    0.0000 C   0  0  0  0  0  0  0  0  0  0  0  0
    0.7341   -5.6234    0.0000 C   0  0  0  0  0  0  0  0  0  0  0  0
    2.8778   -6.0492    0.0000 C   0  0  0  0  0  0  0  0  0  0  0  0
    2.8631   -5.0728    0.0000 Cl  0  0  0  0  0  0  0  0  0  0  0  0
    4.3680   -2.0629    0.0000 O   0  0  0  0  0  0  0  0  0  0  0  0
    0.0000   -6.0492    0.0000 O   0  0  0  0  0  0  0  0  0  0  0  0
    5.9097   -3.3036    0.0000 O   0  0  0  0  0  0  0  0  0  0  0  0
    4.3093   -2.7236    0.0000 C   0  0  0  0  0  0  0  0  0  0  0  0
    2.1510   -3.1274    0.0000 O   0  0  0  0  0  0  0  0  0  0  0  0
    2.1583   -3.9716    0.0000 C   0  0  0  0  0  0  0  0  0  0  0  0
    6.4750   -3.9716    0.0000 C   0  0  0  0  0  0  0  0  0  0  0  0
    5.8069   -2.0629    0.0000 C   0  0  0  0  0  0  0  0  0  0  0  0
    5.8069   -1.2480    0.0000 O   0  0  0  0  0  0  0  0  0  0  0  0
    5.0948   -0.8295    0.0000 C   0  0  0  0  0  0  0  0  0  0  0  0
    5.0948    0.0000    0.0000 O   0  0  0  0  0  0  0  0  0  0  0  0
    4.3901   -1.2480    0.0000 C   0  0  0  0  0  0  0  0  0  0  0  0
    3.6633   -0.8295    0.0000 C   0  0  0  0  0  0  0  0  0  0  0  0
    6.6218   -2.8924    0.0000 C   0  0  0  0  0  0  0  0  0  0  0  0
    7.3339   -3.3109    0.0000 O   0  0  0  0  0  0  0  0  0  0  0  0
    6.6218   -2.0629    0.0000 C   0  0  0  0  0  0  0  0  0  0  0  0
    7.3413   -1.6591    0.0000 C   0  0  0  0  0  0  0  0  0  0  0  0
  1  4  1  0
  1  6  1  0
  1  9  1  0
  1 23  1  1
  2  8  1  0
  2  3  1  0
  2 19  1  6
  2  5  1  0
  3  7  1  0
  3 11  1  0
  3 25  1  1
  4  5  1  0
  4 12  1  1
  5 15  1  6
  6 10  1  0
  6 14  1  0
  6 22  1  6
  7 13  2  0
  7 18  1  0
  8  9  1  0
  8 24  1  1
 10 26  1  1
 10 12  1  0
 11 16  2  0
 13 17  1  0
 14 20  2  0
 14 27  1  0
 15 18  1  0
 16 17  1  0
 17 21  2  0
 22 33  1  0
 27 28  1  0
 28 29  1  0
 29 30  2  0
 29 31  1  0
 31 32  1  0
 33 34  2  0
 33 35  1  0
 35 36  1  0
M  END
>  <Formula>  (606) 
C28H37ClO7

>  <FW>  (606) 
521.0422

>  <DSSTox_CID>  (606) 
28656

>  <NR-AR>  (606) 
1

>  <NR-AR-LBD>  (606) 
1

>  <NR-ER>  (606) 
0

>  <SR-ATAD5>  (606) 
0

>  <SR-MMP>  (606) 
1

>  <SR-p53>  (606) 
0

$$$$
NCGC00183124-01
     RDKit          2D

 33 36  0  0  1  0  0  0  0  0999 V2000
    4.3032   -3.5720    0.0000 C   0  0  0  0  0  0  0  0  0  0  0  0
    4.3032   -4.3970    0.0000 C   0  0  0  0  0  0  0  0  0  0  0  0
    5.0907   -3.3095    0.0000 C   0  0  0  0  0  0  0  0  0  0  0  0
    3.5814   -3.1501    0.0000 C   0  0  0  0  0  0  0  0  0  0  0  0
    3.5814   -4.8095    0.0000 C   0  0  0  0  0  0  0  0  0  0  0  0
    5.0907   -4.6501    0.0000 C   0  0  0  0  0  0  0  0  0  0  0  0
    5.5783   -3.9845    0.0000 C   0  0  0  0  0  0  0  0  0  0  0  0
    5.0907   -2.4845    0.0000 C   0  0  0  0  0  0  0  0  0  0  0  0
    5.7939   -2.8969    0.0000 O   0  0  0  0  0  0  0  0  0  0  0  0
    2.8688   -3.5720    0.0000 C   0  0  0  0  0  0  0  0  0  0  0  0
    2.8688   -4.3970    0.0000 C   0  0  0  0  0  0  0  0  0  0  0  0
    3.5814   -5.6251    0.0000 C   0  0  0  0  0  0  0  0  0  0  0  0
    5.7939   -2.0625    0.0000 C   0  0  0  0  0  0  0  0  0  0  0  0
    4.3595   -2.0625    0.0000 O   0  0  0  0  0  0  0  0  0  0  0  0
    2.1563   -3.1501    0.0000 O   0  0  0  0  0  0  0  0  0  0  0  0
    2.1563   -4.8095    0.0000 C   0  0  0  0  0  0  0  0  0  0  0  0
    2.8688   -6.0564    0.0000 C   0  0  0  0  0  0  0  0  0  0  0  0
    5.7939   -1.2375    0.0000 O   0  0  0  0  0  0  0  0  0  0  0  0
    2.1563   -5.6251    0.0000 C   0  0  0  0  0  0  0  0  0  0  0  0
    1.4438   -4.3970    0.0000 C   0  0  0  0  0  0  0  0  0  0  0  0
    2.1563   -3.9845    0.0000 C   0  0  0  0  0  0  0  0  0  0  0  0
    6.5158   -0.8344    0.0000 C   0  0  0  0  0  0  0  0  0  0  0  0
    1.4438   -6.0564    0.0000 C   0  0  0  0  0  0  0  0  0  0  0  0
    0.7219   -4.8095    0.0000 C   0  0  0  0  0  0  0  0  0  0  0  0
    7.2283   -1.2375    0.0000 C   0  0  0  0  0  0  0  0  0  0  0  0
    6.5158    0.0000    0.0000 O   0  0  0  0  0  0  0  0  0  0  0  0
    0.7219   -5.6251    0.0000 C   0  0  0  0  0  0  0  0  0  0  0  0
    7.9408   -0.8344    0.0000 C   0  0  0  0  0  0  0  0  0  0  0  0
    0.0000   -6.0564    0.0000 O   0  0  0  0  0  0  0  0  0  0  0  0
    8.6627   -1.2375    0.0000 C   0  0  0  0  0  0  0  0  0  0  0  0
    8.6627   -2.0625    0.0000 O   0  0  0  0  0  0  0  0  0  0  0  0
    9.3752   -0.8344    0.0000 O   0  0  0  0  0  0  0  0  0  0  0  0
    4.3032   -2.7470    0.0000 C   0  0  0  0  0  0  0  0  0  0  0  0
  1  2  1  0
  1  3  1  0
  1  4  1  0
  1 33  1  1
  2  5  1  0
  2  6  1  1
  3  7  1  0
  3  8  1  0
  3  9  1  6
  4 10  1  0
  5 11  1  0
  5 12  1  6
  6  7  1  0
  8 13  1  0
  8 14  2  0
 10 15  1  1
 11 10  1  1
 11 16  1  0
 12 17  1  0
 13 18  1  0
 16 19  1  0
 16 20  1  0
 16 21  1  1
 17 19  1  0
 18 22  1  0
 19 23  2  0
 20 24  2  0
 22 25  1  0
 22 26  2  0
 23 27  1  0
 24 27  1  0
 25 28  1  0
 27 29  2  0
 28 30  1  0
 30 31  1  0
 30 32  2  0
M  END
>  <Formula>  (607) 
C25H32O8

>  <FW>  (607) 
460.5168

>  <DSSTox_CID>  (607) 
28890

>  <NR-AR>  (607) 
1

>  <NR-AR-LBD>  (607) 
1

>  <NR-ER-LBD>  (607) 
0

>  <NR-PPAR-gamma>  (607) 
0

>  <SR-MMP>  (607) 
0

>  <SR-p53>  (607) 
0

$$$$
NCGC00016862-01
     RDKit          2D

 31 35  0  0  1  0  0  0  0  0999 V2000
    5.1538   -2.1009    0.0000 C   0  0  0  0  0  0  0  0  0  0  0  0
    4.3477   -2.3582    0.0000 C   0  0  0  0  0  0  0  0  0  0  0  0
    5.6426   -2.7441    0.0000 C   0  0  0  0  0  0  0  0  0  0  0  0
    5.6426   -1.4578    0.0000 O   0  0  0  0  0  0  0  0  0  0  0  0
    4.9223   -1.3377    0.0000 C   0  0  0  0  0  0  0  0  0  0  0  0
    4.3477   -3.1386    0.0000 C   0  0  0  0  0  0  0  0  0  0  0  0
    3.6360   -1.9638    0.0000 C   0  0  0  0  0  0  0  0  0  0  0  0
    4.3820   -1.7408    0.0000 C   0  0  0  0  0  0  0  0  0  0  0  0
    5.1538   -3.3872    0.0000 C   0  0  0  0  0  0  0  0  0  0  0  0
    6.4401   -2.4954    0.0000 O   0  0  0  0  0  0  0  0  0  0  0  0
    6.4401   -1.7065    0.0000 C   0  0  0  0  0  0  0  0  0  0  0  0
    5.5053   -0.7547    0.0000 C   0  0  0  0  0  0  0  0  0  0  0  0
    4.1247   -1.1405    0.0000 O   0  0  0  0  0  0  0  0  0  0  0  0
    3.6360   -3.5502    0.0000 C   0  0  0  0  0  0  0  0  0  0  0  0
    2.8985   -2.3582    0.0000 C   0  0  0  0  0  0  0  0  0  0  0  0
    7.1175   -1.2348    0.0000 C   0  0  0  0  0  0  0  0  0  0  0  0
    5.2738    0.0000    0.0000 O   0  0  0  0  0  0  0  0  0  0  0  0
    2.8985   -3.1386    0.0000 C   0  0  0  0  0  0  0  0  0  0  0  0
    3.6360   -4.3391    0.0000 C   0  0  0  0  0  0  0  0  0  0  0  0
    2.1781   -1.9638    0.0000 O   0  0  0  0  0  0  0  0  0  0  0  0
    7.8893   -1.5607    0.0000 C   0  0  0  0  0  0  0  0  0  0  0  0
    2.1781   -3.5502    0.0000 C   0  0  0  0  0  0  0  0  0  0  0  0
    2.8985   -4.7421    0.0000 C   0  0  0  0  0  0  0  0  0  0  0  0
    8.5753   -1.0891    0.0000 C   0  0  0  0  0  0  0  0  0  0  0  0
    2.1781   -4.3391    0.0000 C   0  0  0  0  0  0  0  0  0  0  0  0
    1.4492   -3.1386    0.0000 C   0  0  0  0  0  0  0  0  0  0  0  0
    2.1781   -2.7441    0.0000 C   0  0  0  0  0  0  0  0  0  0  0  0
    1.4492   -4.7421    0.0000 C   0  0  0  0  0  0  0  0  0  0  0  0
    0.7203   -3.5502    0.0000 C   0  0  0  0  0  0  0  0  0  0  0  0
    0.7203   -4.3391    0.0000 C   0  0  0  0  0  0  0  0  0  0  0  0
    0.0000   -4.7421    0.0000 O   0  0  0  0  0  0  0  0  0  0  0  0
  1  2  1  0
  1  3  1  0
  1  4  1  0
  1  5  1  1
  2  6  1  0
  2  7  1  0
  2  8  1  1
  3  9  1  6
  3 10  1  0
  4 11  1  0
  5 12  1  0
  5 13  2  0
  6 14  1  0
  6  9  1  1
  7 15  1  0
 10 11  1  0
 11 16  1  6
 12 17  1  0
 14 18  1  0
 14 19  1  6
 15 20  1  1
 18 15  1  1
 16 21  1  0
 18 22  1  0
 19 23  1  0
 21 24  1  0
 22 25  1  0
 22 26  1  0
 22 27  1  1
 23 25  1  0
 25 28  2  0
 26 29  2  0
 28 30  1  0
 29 30  1  0
 30 31  2  0
M  END
>  <Formula>  (608) 
C25H34O6

>  <FW>  (608) 
430.5339

>  <DSSTox_CID>  (608) 
202

>  <NR-AR>  (608) 
1

>  <NR-ER>  (608) 
0

>  <NR-PPAR-gamma>  (608) 
0

>  <NR-AhR>  (608) 
0

>  <SR-MMP>  (608) 
0

>  <SR-p53>  (608) 
0

$$$$
NCGC00016983-01
     RDKit          2D

 31 35  0  0  1  0  0  0  0  0999 V2000
    5.0731   -1.2447    0.0000 C   0  0  0  0  0  0  0  0  0  0  0  0
    4.2843   -1.4981    0.0000 C   0  0  0  0  0  0  0  0  0  0  0  0
    2.1349   -2.7356    0.0000 C   0  0  0  0  0  0  0  0  0  0  0  0
    2.1349   -3.5461    0.0000 C   0  0  0  0  0  0  0  0  0  0  0  0
    4.2843   -2.3231    0.0000 C   0  0  0  0  0  0  0  0  0  0  0  0
    3.5823   -2.7356    0.0000 C   0  0  0  0  0  0  0  0  0  0  0  0
    2.8658   -2.3231    0.0000 C   0  0  0  0  0  0  0  0  0  0  0  0
    5.5362   -1.9105    0.0000 C   0  0  0  0  0  0  0  0  0  0  0  0
    5.5797   -0.5790    0.0000 O   0  0  0  0  0  0  0  0  0  0  0  0
    1.4329   -2.3231    0.0000 C   0  0  0  0  0  0  0  0  0  0  0  0
    3.5823   -1.0855    0.0000 C   0  0  0  0  0  0  0  0  0  0  0  0
    6.3396   -0.8540    0.0000 C   0  0  0  0  0  0  0  0  0  0  0  0
    2.8658   -1.4981    0.0000 C   0  0  0  0  0  0  0  0  0  0  0  0
    6.3396   -1.6211    0.0000 O   0  0  0  0  0  0  0  0  0  0  0  0
    5.0731   -2.5619    0.0000 C   0  0  0  0  0  0  0  0  0  0  0  0
    3.5823   -3.5461    0.0000 C   0  0  0  0  0  0  0  0  0  0  0  0
    2.8658   -3.9659    0.0000 C   0  0  0  0  0  0  0  0  0  0  0  0
    1.4329   -3.9659    0.0000 C   0  0  0  0  0  0  0  0  0  0  0  0
    5.0731   -0.4197    0.0000 C   0  0  0  0  0  0  0  0  0  0  0  0
    0.7237   -2.7356    0.0000 C   0  0  0  0  0  0  0  0  0  0  0  0
    0.7237   -3.5461    0.0000 C   0  0  0  0  0  0  0  0  0  0  0  0
    5.7968   -0.0073    0.0000 O   0  0  0  0  0  0  0  0  0  0  0  0
    0.0000   -3.9731    0.0000 O   0  0  0  0  0  0  0  0  0  0  0  0
    4.2843   -0.6731    0.0000 C   0  0  0  0  0  0  0  0  0  0  0  0
    2.1349   -1.9105    0.0000 C   0  0  0  0  0  0  0  0  0  0  0  0
    2.8658   -4.7909    0.0000 F   0  0  0  0  0  0  0  0  0  0  0  0
    2.1349   -1.0711    0.0000 O   0  0  0  0  0  0  0  0  0  0  0  0
    4.3856    0.0000    0.0000 C   0  0  0  0  0  0  0  0  0  0  0  0
    6.5929   -0.0362    0.0000 C   0  0  0  0  0  0  0  0  0  0  0  0
    7.2370   -0.8540    0.0000 C   0  0  0  0  0  0  0  0  0  0  0  0
    3.6547   -0.3763    0.0000 O   0  0  0  0  0  0  0  0  0  0  0  0
  1  2  1  0
  1  8  1  0
  1  9  1  0
  1 19  1  1
  2  5  1  0
  2 11  1  0
  2 24  1  1
  3  7  1  0
  3  4  1  0
  3 10  1  0
  3 25  1  1
  4 18  2  0
  4 17  1  0
  5  6  1  0
  5 15  1  1
  6 16  1  6
  6  7  1  0
  7 13  1  1
  8 14  1  0
  8 15  1  6
  9 12  1  0
 10 20  2  0
 11 13  1  0
 12 29  1  0
 12 30  1  0
 12 14  1  0
 13 27  1  1
 16 17  1  0
 17 26  1  6
 18 21  1  0
 19 22  2  0
 19 28  1  0
 20 21  1  0
 21 23  2  0
 28 31  1  0
M  END
>  <Formula>  (609) 
C24H31FO6

>  <FW>  (609) 
434.4977

>  <DSSTox_CID>  (609) 
25534

>  <NR-AR>  (609) 
1

>  <NR-AR-LBD>  (609) 
0

>  <NR-ER>  (609) 
0

>  <NR-PPAR-gamma>  (609) 
0

>  <NR-AhR>  (609) 
0

>  <SR-p53>  (609) 
0

$$$$
NCGC00016586-01
     RDKit          2D

 31 35  0  0  1  0  0  0  0  0999 V2000
    5.1015   -1.2413    0.0000 C   0  0  0  0  0  0  0  0  0  0  0  0
    4.3051   -1.4996    0.0000 C   0  0  0  0  0  0  0  0  0  0  0  0
    2.1597   -2.7265    0.0000 C   0  0  0  0  0  0  0  0  0  0  0  0
    4.3051   -2.3176    0.0000 C   0  0  0  0  0  0  0  0  0  0  0  0
    2.1597   -3.5517    0.0000 C   0  0  0  0  0  0  0  0  0  0  0  0
    3.5947   -2.7265    0.0000 C   0  0  0  0  0  0  0  0  0  0  0  0
    2.8700   -2.3176    0.0000 C   0  0  0  0  0  0  0  0  0  0  0  0
    5.5535   -1.9014    0.0000 C   0  0  0  0  0  0  0  0  0  0  0  0
    5.5679   -0.5812    0.0000 O   0  0  0  0  0  0  0  0  0  0  0  0
    3.5803   -1.0834    0.0000 C   0  0  0  0  0  0  0  0  0  0  0  0
    6.3428   -0.8395    0.0000 C   0  0  0  0  0  0  0  0  0  0  0  0
    2.8700   -1.4996    0.0000 C   0  0  0  0  0  0  0  0  0  0  0  0
    6.3428   -1.6503    0.0000 O   0  0  0  0  0  0  0  0  0  0  0  0
    5.0871   -2.5687    0.0000 C   0  0  0  0  0  0  0  0  0  0  0  0
    3.5947   -3.5588    0.0000 C   0  0  0  0  0  0  0  0  0  0  0  0
    2.8700   -3.9463    0.0000 C   0  0  0  0  0  0  0  0  0  0  0  0
    1.4422   -3.9463    0.0000 C   0  0  0  0  0  0  0  0  0  0  0  0
    5.1015   -0.4162    0.0000 C   0  0  0  0  0  0  0  0  0  0  0  0
    1.4422   -2.3176    0.0000 C   0  0  0  0  0  0  0  0  0  0  0  0
    0.7318   -3.5517    0.0000 C   0  0  0  0  0  0  0  0  0  0  0  0
    5.8118    0.0000    0.0000 O   0  0  0  0  0  0  0  0  0  0  0  0
    0.0000   -3.9463    0.0000 O   0  0  0  0  0  0  0  0  0  0  0  0
    4.3194   -0.6601    0.0000 C   0  0  0  0  0  0  0  0  0  0  0  0
    0.7318   -2.7265    0.0000 C   0  0  0  0  0  0  0  0  0  0  0  0
    2.1597   -1.9014    0.0000 C   0  0  0  0  0  0  0  0  0  0  0  0
    2.8700   -4.7714    0.0000 F   0  0  0  0  0  0  0  0  0  0  0  0
    2.1597   -1.0619    0.0000 O   0  0  0  0  0  0  0  0  0  0  0  0
    4.3696   -0.0144    0.0000 C   0  0  0  0  0  0  0  0  0  0  0  0
    6.5580   -0.0430    0.0000 C   0  0  0  0  0  0  0  0  0  0  0  0
    7.1751   -0.8395    0.0000 C   0  0  0  0  0  0  0  0  0  0  0  0
    3.6737   -0.4592    0.0000 O   0  0  0  0  0  0  0  0  0  0  0  0
  1  2  1  0
  1  8  1  0
  1  9  1  0
  1 18  1  1
  2  4  1  0
  2 10  1  0
  2 23  1  1
  3  7  1  0
  3  5  1  0
  3 19  1  0
  3 25  1  1
  4  6  1  0
  4 14  1  1
  5 17  2  0
  5 16  1  0
  6 15  1  6
  6  7  1  0
  7 12  1  1
  8 13  1  0
  8 14  1  6
  9 11  1  0
 10 12  1  0
 11 29  1  0
 11 30  1  0
 11 13  1  0
 12 27  1  1
 15 16  1  0
 16 26  1  6
 17 20  1  0
 18 21  2  0
 18 28  1  0
 19 24  1  0
 20 24  1  0
 20 22  2  0
 28 31  1  0
M  END
>  <Formula>  (610) 
C24H33FO6

>  <FW>  (610) 
436.5136

>  <DSSTox_CID>  (610) 
27434

>  <NR-AR>  (610) 
1

>  <NR-AR-LBD>  (610) 
0

>  <NR-ER>  (610) 
0

>  <NR-PPAR-gamma>  (610) 
0

>  <SR-MMP>  (610) 
0

>  <SR-p53>  (610) 
0

$$$$
NCGC00160544-01
     RDKit          2D

 29 32  0  0  1  0  0  0  0  0999 V2000
    4.3082   -1.4979    0.0000 C   0  0  0  0  0  0  0  0  0  0  0  0
    5.0942   -1.2532    0.0000 C   0  0  0  0  0  0  0  0  0  0  0  0
    2.1801   -3.5371    0.0000 C   0  0  0  0  0  0  0  0  0  0  0  0
    2.1801   -2.7288    0.0000 C   0  0  0  0  0  0  0  0  0  0  0  0
    4.3082   -2.3506    0.0000 C   0  0  0  0  0  0  0  0  0  0  0  0
    3.6112   -2.7288    0.0000 C   0  0  0  0  0  0  0  0  0  0  0  0
    5.5762   -1.9279    0.0000 C   0  0  0  0  0  0  0  0  0  0  0  0
    3.6112   -3.5371    0.0000 C   0  0  0  0  0  0  0  0  0  0  0  0
    2.8845   -2.3506    0.0000 C   0  0  0  0  0  0  0  0  0  0  0  0
    2.8845   -3.9597    0.0000 C   0  0  0  0  0  0  0  0  0  0  0  0
    5.0942   -2.5879    0.0000 C   0  0  0  0  0  0  0  0  0  0  0  0
    1.4608   -3.9597    0.0000 C   0  0  0  0  0  0  0  0  0  0  0  0
    3.6112   -1.0900    0.0000 C   0  0  0  0  0  0  0  0  0  0  0  0
    5.9248   -1.2977    0.0000 O   0  0  0  0  0  0  0  0  0  0  0  0
    2.8845   -1.4979    0.0000 C   0  0  0  0  0  0  0  0  0  0  0  0
    1.4608   -2.3506    0.0000 C   0  0  0  0  0  0  0  0  0  0  0  0
    5.0942   -0.4078    0.0000 C   0  0  0  0  0  0  0  0  0  0  0  0
    6.6440   -0.8824    0.0000 C   0  0  0  0  0  0  0  0  0  0  0  0
    0.7489   -3.5371    0.0000 C   0  0  0  0  0  0  0  0  0  0  0  0
    6.4067   -1.9279    0.0000 C   0  0  0  0  0  0  0  0  0  0  0  0
    6.6440   -0.0222    0.0000 O   0  0  0  0  0  0  0  0  0  0  0  0
    4.3750    0.0000    0.0000 O   0  0  0  0  0  0  0  0  0  0  0  0
    0.0000   -3.9449    0.0000 O   0  0  0  0  0  0  0  0  0  0  0  0
    4.3082   -0.6674    0.0000 C   0  0  0  0  0  0  0  0  0  0  0  0
    0.7489   -2.7288    0.0000 C   0  0  0  0  0  0  0  0  0  0  0  0
    2.1801   -1.8983    0.0000 C   0  0  0  0  0  0  0  0  0  0  0  0
    2.8845   -4.7976    0.0000 C   0  0  0  0  0  0  0  0  0  0  0  0
    7.4152   -1.2383    0.0000 C   0  0  0  0  0  0  0  0  0  0  0  0
    5.8061    0.0000    0.0000 C   0  0  0  0  0  0  0  0  0  0  0  0
  1  2  1  0
  1  5  1  0
  1 13  1  0
  1 24  1  1
  2  7  1  0
  2 14  1  6
  2 17  1  0
  3  4  1  0
  3 12  2  0
  3 10  1  0
  4  9  1  0
  4 16  1  0
  4 26  1  1
  5  6  1  0
  5 11  1  1
  6  8  1  6
  6  9  1  0
  7 20  2  0
  7 11  1  0
  8 10  2  0
  9 15  1  1
 10 27  1  0
 12 19  1  0
 13 15  1  0
 14 18  1  0
 16 25  1  0
 17 22  2  0
 17 29  1  0
 18 21  2  0
 18 28  1  0
 19 25  1  0
 19 23  2  0
M  END
>  <Formula>  (611) 
C25H32O4

>  <FW>  (611) 
396.5192

>  <DSSTox_CID>  (611) 
28158

>  <NR-AR>  (611) 
1

>  <NR-ER>  (611) 
0

>  <NR-PPAR-gamma>  (611) 
0

>  <NR-AhR>  (611) 
0

>  <SR-ATAD5>  (611) 
0

>  <SR-p53>  (611) 
0

$$$$
NCGC00016516-01
     RDKit          2D

 28 31  0  0  1  0  0  0  0  0999 V2000
    2.1525   -3.5559    0.0000 C   0  0  0  0  0  0  0  0  0  0  0  0
    2.1525   -2.7342    0.0000 C   0  0  0  0  0  0  0  0  0  0  0  0
    4.3122   -1.4762    0.0000 C   0  0  0  0  0  0  0  0  0  0  0  0
    5.0903   -1.2362    0.0000 C   0  0  0  0  0  0  0  0  0  0  0  0
    3.5923   -2.7342    0.0000 C   0  0  0  0  0  0  0  0  0  0  0  0
    3.5923   -3.5559    0.0000 C   0  0  0  0  0  0  0  0  0  0  0  0
    2.8796   -2.3197    0.0000 C   0  0  0  0  0  0  0  0  0  0  0  0
    4.3122   -2.3197    0.0000 C   0  0  0  0  0  0  0  0  0  0  0  0
    2.8796   -3.9631    0.0000 C   0  0  0  0  0  0  0  0  0  0  0  0
    1.4471   -3.9631    0.0000 C   0  0  0  0  0  0  0  0  0  0  0  0
    3.5923   -1.0690    0.0000 C   0  0  0  0  0  0  0  0  0  0  0  0
    5.5702   -1.9125    0.0000 C   0  0  0  0  0  0  0  0  0  0  0  0
    5.8029   -0.8508    0.0000 O   0  0  0  0  0  0  0  0  0  0  0  0
    2.8796   -1.4762    0.0000 C   0  0  0  0  0  0  0  0  0  0  0  0
    5.0903   -2.5597    0.0000 C   0  0  0  0  0  0  0  0  0  0  0  0
    1.4471   -2.3197    0.0000 C   0  0  0  0  0  0  0  0  0  0  0  0
    5.0903   -0.4290    0.0000 C   0  0  0  0  0  0  0  0  0  0  0  0
    6.5374   -1.2362    0.0000 C   0  0  0  0  0  0  0  0  0  0  0  0
    0.7199   -3.5559    0.0000 C   0  0  0  0  0  0  0  0  0  0  0  0
    6.5374   -2.0724    0.0000 O   0  0  0  0  0  0  0  0  0  0  0  0
    5.8174    0.0000    0.0000 O   0  0  0  0  0  0  0  0  0  0  0  0
    0.0000   -3.9704    0.0000 O   0  0  0  0  0  0  0  0  0  0  0  0
    0.7199   -2.7342    0.0000 C   0  0  0  0  0  0  0  0  0  0  0  0
    2.1525   -1.9125    0.0000 C   0  0  0  0  0  0  0  0  0  0  0  0
    4.3122   -0.6472    0.0000 C   0  0  0  0  0  0  0  0  0  0  0  0
    2.8796   -4.7994    0.0000 C   0  0  0  0  0  0  0  0  0  0  0  0
    7.2718   -0.8144    0.0000 C   0  0  0  0  0  0  0  0  0  0  0  0
    4.3849    0.0000    0.0000 C   0  0  0  0  0  0  0  0  0  0  0  0
  1  2  1  0
  1  9  1  0
  1 10  2  0
  2  7  1  0
  2 16  1  0
  2 24  1  1
  3  8  1  0
  3  4  1  0
  3 25  1  1
  3 11  1  0
  4 13  1  6
  4 17  1  0
  4 12  1  0
  5  6  1  6
  5  8  1  0
  5  7  1  0
  6  9  2  0
  7 14  1  1
  8 15  1  1
  9 26  1  0
 10 19  1  0
 11 14  1  0
 12 15  1  0
 13 18  1  0
 16 23  1  0
 17 21  2  0
 17 28  1  0
 18 20  2  0
 18 27  1  0
 19 22  2  0
 19 23  1  0
M  END
>  <Formula>  (612) 
C24H32O4

>  <FW>  (612) 
384.5085

>  <DSSTox_CID>  (612) 
20683

>  <NR-AR>  (612) 
1

>  <NR-ER>  (612) 
0

>  <NR-ER-LBD>  (612) 
0

>  <NR-PPAR-gamma>  (612) 
0

>  <NR-AhR>  (612) 
0

>  <SR-ATAD5>  (612) 
0

>  <SR-p53>  (612) 
0

$$$$
NCGC00016926-01
     RDKit          2D

 35 38  0  0  1  0  0  0  0  0999 V2000
    4.3463   -1.8882    0.0000 C   0  0  0  0  0  0  0  0  0  0  0  0
    5.1032   -1.6245    0.0000 C   0  0  0  0  0  0  0  0  0  0  0  0
    2.1943   -3.0619    0.0000 C   0  0  0  0  0  0  0  0  0  0  0  0
    3.6573   -3.0619    0.0000 C   0  0  0  0  0  0  0  0  0  0  0  0
    4.3463   -2.6792    0.0000 C   0  0  0  0  0  0  0  0  0  0  0  0
    2.9258   -2.6962    0.0000 C   0  0  0  0  0  0  0  0  0  0  0  0
    2.1943   -3.9039    0.0000 C   0  0  0  0  0  0  0  0  0  0  0  0
    3.6233   -1.4714    0.0000 C   0  0  0  0  0  0  0  0  0  0  0  0
    2.9258   -1.8967    0.0000 C   0  0  0  0  0  0  0  0  0  0  0  0
    1.4544   -2.6962    0.0000 C   0  0  0  0  0  0  0  0  0  0  0  0
    5.3158   -0.8335    0.0000 C   0  0  0  0  0  0  0  0  0  0  0  0
    1.4544   -4.3547    0.0000 C   0  0  0  0  0  0  0  0  0  0  0  0
    5.8092   -1.6245    0.0000 O   0  0  0  0  0  0  0  0  0  0  0  0
    6.2514   -2.3220    0.0000 C   0  0  0  0  0  0  0  0  0  0  0  0
    5.5965   -2.2709    0.0000 C   0  0  0  0  0  0  0  0  0  0  0  0
    5.1032   -2.9003    0.0000 C   0  0  0  0  0  0  0  0  0  0  0  0
    3.6573   -3.9039    0.0000 C   0  0  0  0  0  0  0  0  0  0  0  0
    0.7314   -3.0619    0.0000 C   0  0  0  0  0  0  0  0  0  0  0  0
    0.7314   -3.9039    0.0000 C   0  0  0  0  0  0  0  0  0  0  0  0
    2.9258   -4.3547    0.0000 C   0  0  0  0  0  0  0  0  0  0  0  0
    7.5102   -1.0121    0.0000 C   0  0  0  0  0  0  0  0  0  0  0  0
    6.1408   -0.6379    0.0000 C   0  0  0  0  0  0  0  0  0  0  0  0
    7.0935   -2.3220    0.0000 O   0  0  0  0  0  0  0  0  0  0  0  0
    4.7205   -0.2211    0.0000 O   0  0  0  0  0  0  0  0  0  0  0  0
    6.7022   -1.2248    0.0000 O   0  0  0  0  0  0  0  0  0  0  0  0
    8.1311   -1.5820    0.0000 O   0  0  0  0  0  0  0  0  0  0  0  0
    0.0000   -4.3547    0.0000 O   0  0  0  0  0  0  0  0  0  0  0  0
    4.3463   -1.0632    0.0000 C   0  0  0  0  0  0  0  0  0  0  0  0
    2.1859   -1.4714    0.0000 O   0  0  0  0  0  0  0  0  0  0  0  0
    5.8092   -3.0024    0.0000 O   0  0  0  0  0  0  0  0  0  0  0  0
    2.1943   -2.2709    0.0000 C   0  0  0  0  0  0  0  0  0  0  0  0
    7.8079   -0.2211    0.0000 C   0  0  0  0  0  0  0  0  0  0  0  0
    6.2514   -3.7338    0.0000 C   0  0  0  0  0  0  0  0  0  0  0  0
    8.5053    0.0000    0.0000 C   0  0  0  0  0  0  0  0  0  0  0  0
    5.8092   -4.4653    0.0000 C   0  0  0  0  0  0  0  0  0  0  0  0
  1  2  1  0
  1  5  1  0
  1  8  1  0
  1 28  1  1
  2 11  1  0
  2 13  1  6
  2 15  1  0
  3  6  1  0
  3  7  1  0
  3 10  1  0
  3 31  1  1
  4  5  1  0
  4 17  1  6
  4  6  1  0
  5 16  1  1
  6  9  1  1
  7 12  2  0
  7 20  1  0
  8  9  1  0
  9 29  1  1
 10 18  2  0
 11 22  1  0
 11 24  2  0
 12 19  1  0
 13 14  1  0
 14 23  2  0
 14 30  1  0
 15 16  1  0
 17 20  1  0
 18 19  1  0
 19 27  2  0
 21 25  1  0
 21 26  2  0
 21 32  1  0
 22 25  1  0
 30 33  1  0
 32 34  1  0
 33 35  1  0
M  END
>  <Formula>  (613) 
C27H36O8

>  <FW>  (613) 
488.5699

>  <DSSTox_CID>  (613) 
25502

>  <NR-AR>  (613) 
1

>  <NR-AR-LBD>  (613) 
1

>  <NR-ER>  (613) 
0

>  <NR-ER-LBD>  (613) 
0

>  <SR-ATAD5>  (613) 
0

>  <SR-p53>  (613) 
0

$$$$
NCGC00167451-01
     RDKit          2D

 33 36  0  0  1  0  0  0  0  0999 V2000
    4.2813   -1.5845    0.0000 C   0  0  0  0  0  0  0  0  0  0  0  0
    2.8649   -2.3927    0.0000 C   0  0  0  0  0  0  0  0  0  0  0  0
    2.1446   -2.8088    0.0000 C   0  0  0  0  0  0  0  0  0  0  0  0
    4.2813   -2.3927    0.0000 C   0  0  0  0  0  0  0  0  0  0  0  0
    3.5691   -2.8088    0.0000 C   0  0  0  0  0  0  0  0  0  0  0  0
    5.0655   -1.3204    0.0000 C   0  0  0  0  0  0  0  0  0  0  0  0
    2.1446   -3.6411    0.0000 C   0  0  0  0  0  0  0  0  0  0  0  0
    2.8649   -1.5845    0.0000 C   0  0  0  0  0  0  0  0  0  0  0  0
    3.5691   -1.1603    0.0000 C   0  0  0  0  0  0  0  0  0  0  0  0
    5.5537   -1.9926    0.0000 C   0  0  0  0  0  0  0  0  0  0  0  0
    1.4564   -2.3927    0.0000 C   0  0  0  0  0  0  0  0  0  0  0  0
    5.0655   -2.6488    0.0000 C   0  0  0  0  0  0  0  0  0  0  0  0
    1.4564   -4.0572    0.0000 C   0  0  0  0  0  0  0  0  0  0  0  0
    5.0655   -0.4882    0.0000 C   0  0  0  0  0  0  0  0  0  0  0  0
    3.5691   -3.6411    0.0000 C   0  0  0  0  0  0  0  0  0  0  0  0
    0.7282   -2.8088    0.0000 C   0  0  0  0  0  0  0  0  0  0  0  0
    0.7282   -3.6411    0.0000 C   0  0  0  0  0  0  0  0  0  0  0  0
    2.8649   -4.0572    0.0000 C   0  0  0  0  0  0  0  0  0  0  0  0
    2.8489   -3.1049    0.0000 F   0  0  0  0  0  0  0  0  0  0  0  0
    0.0000   -4.0572    0.0000 O   0  0  0  0  0  0  0  0  0  0  0  0
    5.8658   -1.3044    0.0000 O   0  0  0  0  0  0  0  0  0  0  0  0
    4.2813   -0.7522    0.0000 C   0  0  0  0  0  0  0  0  0  0  0  0
    2.1367   -1.1603    0.0000 O   0  0  0  0  0  0  0  0  0  0  0  0
    2.1446   -1.9926    0.0000 C   0  0  0  0  0  0  0  0  0  0  0  0
    6.3779   -1.9766    0.0000 C   0  0  0  0  0  0  0  0  0  0  0  0
    4.3293   -0.1521    0.0000 C   0  0  0  0  0  0  0  0  0  0  0  0
    3.6571   -0.6482    0.0000 Cl  0  0  0  0  0  0  0  0  0  0  0  0
    2.8649   -4.8735    0.0000 F   0  0  0  0  0  0  0  0  0  0  0  0
    6.5860   -0.8803    0.0000 C   0  0  0  0  0  0  0  0  0  0  0  0
    5.7377    0.0000    0.0000 O   0  0  0  0  0  0  0  0  0  0  0  0
    7.2902   -1.3044    0.0000 C   0  0  0  0  0  0  0  0  0  0  0  0
    8.0024   -0.8803    0.0000 C   0  0  0  0  0  0  0  0  0  0  0  0
    6.5860   -0.0720    0.0000 O   0  0  0  0  0  0  0  0  0  0  0  0
  1  4  1  0
  1  6  1  0
  1  9  1  0
  1 22  1  1
  2  8  1  0
  2  3  1  0
  2 19  1  6
  2  5  1  0
  3  7  1  0
  3 11  1  0
  3 24  1  1
  4  5  1  0
  4 12  1  1
  5 15  1  6
  6 10  1  0
  6 14  1  0
  6 21  1  6
  7 13  2  0
  7 18  1  0
  8  9  1  0
  8 23  1  1
 10 25  1  1
 10 12  1  0
 11 16  2  0
 13 17  1  0
 14 30  2  0
 14 26  1  0
 15 18  1  0
 16 17  1  0
 17 20  2  0
 18 28  1  6
 21 29  1  0
 26 27  1  0
 29 31  1  0
 29 33  2  0
 31 32  1  0
M  END
>  <Formula>  (614) 
C25H31ClF2O5

>  <FW>  (614) 
484.9604

>  <DSSTox_CID>  (614) 
26636

>  <NR-AR>  (614) 
1

>  <NR-AR-LBD>  (614) 
1

>  <NR-ER>  (614) 
0

>  <SR-ATAD5>  (614) 
0

>  <SR-MMP>  (614) 
1

>  <SR-p53>  (614) 
0

$$$$
NCGC00259235-01
     RDKit          2D

 29 33  0  0  1  0  0  0  0  0999 V2000
    2.1521   -2.9413    0.0000 C   0  0  0  0  0  0  0  0  0  0  0  0
    2.1521   -3.7735    0.0000 C   0  0  0  0  0  0  0  0  0  0  0  0
    1.4563   -2.5324    0.0000 C   0  0  0  0  0  0  0  0  0  0  0  0
    0.7174   -2.9628    0.0000 C   0  0  0  0  0  0  0  0  0  0  0  0
    4.2900   -1.7074    0.0000 C   0  0  0  0  0  0  0  0  0  0  0  0
    2.8767   -2.5324    0.0000 C   0  0  0  0  0  0  0  0  0  0  0  0
    3.5798   -2.9628    0.0000 C   0  0  0  0  0  0  0  0  0  0  0  0
    0.7174   -2.1379    0.0000 C   0  0  0  0  0  0  0  0  0  0  0  0
    2.8767   -4.1895    0.0000 C   0  0  0  0  0  0  0  0  0  0  0  0
    1.4563   -4.1895    0.0000 C   0  0  0  0  0  0  0  0  0  0  0  0
    5.0576   -1.4491    0.0000 C   0  0  0  0  0  0  0  0  0  0  0  0
    3.5798   -3.7950    0.0000 C   0  0  0  0  0  0  0  0  0  0  0  0
    4.2900   -2.5324    0.0000 C   0  0  0  0  0  0  0  0  0  0  0  0
    0.7174   -3.7735    0.0000 C   0  0  0  0  0  0  0  0  0  0  0  0
    3.5654   -1.3200    0.0000 C   0  0  0  0  0  0  0  0  0  0  0  0
    2.8767   -1.7074    0.0000 C   0  0  0  0  0  0  0  0  0  0  0  0
    5.5454   -2.1379    0.0000 C   0  0  0  0  0  0  0  0  0  0  0  0
    5.0576   -2.7906    0.0000 C   0  0  0  0  0  0  0  0  0  0  0  0
    5.3374   -0.7389    0.0000 C   0  0  0  0  0  0  0  0  0  0  0  0
    0.0000   -4.2828    0.0000 O   0  0  0  0  0  0  0  0  0  0  0  0
    4.9069    0.0000    0.0000 O   0  0  0  0  0  0  0  0  0  0  0  0
    2.8767   -5.0289    0.0000 Cl  0  0  0  0  0  0  0  0  0  0  0  0
    5.9400   -1.4491    0.0000 O   0  0  0  0  0  0  0  0  0  0  0  0
    2.1665   -2.0876    0.0000 C   0  0  0  0  0  0  0  0  0  0  0  0
    4.2900   -0.9613    0.0000 C   0  0  0  0  0  0  0  0  0  0  0  0
    6.1767   -0.7389    0.0000 C   0  0  0  0  0  0  0  0  0  0  0  0
    6.3489   -2.1665    0.0000 C   0  0  0  0  0  0  0  0  0  0  0  0
    7.1739   -2.1665    0.0000 C   0  0  0  0  0  0  0  0  0  0  0  0
    5.9400   -2.8839    0.0000 O   0  0  0  0  0  0  0  0  0  0  0  0
  1  2  1  0
  1  3  1  0
  1  6  1  0
  1 24  1  1
  2  9  1  0
  2 10  2  0
  3  4  1  0
  3  8  1  6
  4 14  1  0
  4  8  1  6
  5 15  1  0
  5 11  1  0
  5 25  1  1
  5 13  1  0
  6  7  1  0
  6 16  1  1
  7 12  1  6
  7 13  1  0
  9 22  1  0
  9 12  2  0
 10 14  1  0
 11 19  1  0
 11 23  1  6
 11 17  1  0
 13 18  1  1
 14 20  2  0
 15 16  1  0
 17 18  1  0
 19 21  2  0
 19 26  1  0
 23 27  1  0
 27 28  1  0
 27 29  2  0
M  END
>  <Formula>  (615) 
C24H29ClO4

>  <FW>  (615) 
416.9377

>  <DSSTox_CID>  (615) 
366

>  <NR-AR>  (615) 
1

>  <NR-AR-LBD>  (615) 
0

>  <NR-ER>  (615) 
0

>  <NR-ER-LBD>  (615) 
0

>  <NR-AhR>  (615) 
0

>  <SR-ARE>  (615) 
1

$$$$
NCGC00259376-01
     RDKit          2D

 31 35  0  0  1  0  0  0  0  0999 V2000
    5.1538   -2.1009    0.0000 C   0  0  0  0  0  0  0  0  0  0  0  0
    4.3477   -2.3582    0.0000 C   0  0  0  0  0  0  0  0  0  0  0  0
    5.6426   -2.7441    0.0000 C   0  0  0  0  0  0  0  0  0  0  0  0
    5.6426   -1.4578    0.0000 O   0  0  0  0  0  0  0  0  0  0  0  0
    4.9223   -1.3377    0.0000 C   0  0  0  0  0  0  0  0  0  0  0  0
    4.3477   -3.1386    0.0000 C   0  0  0  0  0  0  0  0  0  0  0  0
    3.6360   -1.9638    0.0000 C   0  0  0  0  0  0  0  0  0  0  0  0
    4.3820   -1.7408    0.0000 C   0  0  0  0  0  0  0  0  0  0  0  0
    5.1538   -3.3872    0.0000 C   0  0  0  0  0  0  0  0  0  0  0  0
    6.4401   -2.4954    0.0000 O   0  0  0  0  0  0  0  0  0  0  0  0
    6.4401   -1.7065    0.0000 C   0  0  0  0  0  0  0  0  0  0  0  0
    5.5053   -0.7547    0.0000 C   0  0  0  0  0  0  0  0  0  0  0  0
    4.1247   -1.1405    0.0000 O   0  0  0  0  0  0  0  0  0  0  0  0
    3.6360   -3.5502    0.0000 C   0  0  0  0  0  0  0  0  0  0  0  0
    2.8985   -2.3582    0.0000 C   0  0  0  0  0  0  0  0  0  0  0  0
    7.1175   -1.2348    0.0000 C   0  0  0  0  0  0  0  0  0  0  0  0
    5.2738    0.0000    0.0000 O   0  0  0  0  0  0  0  0  0  0  0  0
    2.8985   -3.1386    0.0000 C   0  0  0  0  0  0  0  0  0  0  0  0
    3.6360   -4.3391    0.0000 C   0  0  0  0  0  0  0  0  0  0  0  0
    2.1781   -1.9638    0.0000 O   0  0  0  0  0  0  0  0  0  0  0  0
    7.8893   -1.5607    0.0000 C   0  0  0  0  0  0  0  0  0  0  0  0
    2.1781   -3.5502    0.0000 C   0  0  0  0  0  0  0  0  0  0  0  0
    2.8985   -4.7421    0.0000 C   0  0  0  0  0  0  0  0  0  0  0  0
    8.5753   -1.0891    0.0000 C   0  0  0  0  0  0  0  0  0  0  0  0
    2.1781   -4.3391    0.0000 C   0  0  0  0  0  0  0  0  0  0  0  0
    1.4492   -3.1386    0.0000 C   0  0  0  0  0  0  0  0  0  0  0  0
    2.1781   -2.7441    0.0000 C   0  0  0  0  0  0  0  0  0  0  0  0
    1.4492   -4.7421    0.0000 C   0  0  0  0  0  0  0  0  0  0  0  0
    0.7203   -3.5502    0.0000 C   0  0  0  0  0  0  0  0  0  0  0  0
    0.7203   -4.3391    0.0000 C   0  0  0  0  0  0  0  0  0  0  0  0
    0.0000   -4.7421    0.0000 O   0  0  0  0  0  0  0  0  0  0  0  0
  1  2  1  0
  1  3  1  0
  1  4  1  0
  1  5  1  1
  2  6  1  0
  2  7  1  0
  2  8  1  1
  3  9  1  6
  3 10  1  0
  4 11  1  0
  5 12  1  0
  5 13  2  0
  6 14  1  0
  6  9  1  1
  7 15  1  0
 10 11  1  0
 11 16  1  6
 12 17  1  0
 14 18  1  0
 14 19  1  6
 15 20  1  1
 18 15  1  1
 16 21  1  0
 18 22  1  0
 19 23  1  0
 21 24  1  0
 22 25  1  0
 22 26  1  0
 22 27  1  1
 23 25  1  0
 25 28  2  0
 26 29  2  0
 28 30  1  0
 29 30  1  0
 30 31  2  0
M  END
>  <Formula>  (616) 
C25H34O6

>  <FW>  (616) 
430.5339

>  <DSSTox_CID>  (616) 
202

>  <NR-AR>  (616) 
1

>  <NR-AR-LBD>  (616) 
1

>  <NR-ER-LBD>  (616) 
0

>  <SR-ATAD5>  (616) 
0

>  <SR-HSE>  (616) 
0

>  <SR-p53>  (616) 
0

$$$$
NCGC00255229-01
     RDKit          2D

 29 33  0  0  1  0  0  0  0  0999 V2000
    2.1409   -3.0677    0.0000 C   0  0  0  0  0  0  0  0  0  0  0  0
    2.1409   -3.8771    0.0000 C   0  0  0  0  0  0  0  0  0  0  0  0
    1.4294   -2.6434    0.0000 C   0  0  0  0  0  0  0  0  0  0  0  0
    1.4294   -4.3014    0.0000 C   0  0  0  0  0  0  0  0  0  0  0  0
    0.7310   -3.0677    0.0000 C   0  0  0  0  0  0  0  0  0  0  0  0
    0.7310   -3.8771    0.0000 C   0  0  0  0  0  0  0  0  0  0  0  0
    2.8719   -2.6434    0.0000 C   0  0  0  0  0  0  0  0  0  0  0  0
    3.5703   -3.0677    0.0000 C   0  0  0  0  0  0  0  0  0  0  0  0
    2.8719   -4.3014    0.0000 C   0  0  0  0  0  0  0  0  0  0  0  0
    3.5703   -3.8967    0.0000 C   0  0  0  0  0  0  0  0  0  0  0  0
    2.8719   -1.8276    0.0000 C   0  0  0  0  0  0  0  0  0  0  0  0
    3.5703   -1.4099    0.0000 C   0  0  0  0  0  0  0  0  0  0  0  0
    4.2883   -2.6434    0.0000 C   0  0  0  0  0  0  0  0  0  0  0  0
    4.2883   -1.8276    0.0000 C   0  0  0  0  0  0  0  0  0  0  0  0
    5.0650   -2.8980    0.0000 C   0  0  0  0  0  0  0  0  0  0  0  0
    5.5611   -2.2388    0.0000 C   0  0  0  0  0  0  0  0  0  0  0  0
    5.0650   -1.5665    0.0000 C   0  0  0  0  0  0  0  0  0  0  0  0
    4.5951   -0.9073    0.0000 C   0  0  0  0  0  0  0  0  0  0  0  0
    5.8548   -1.3119    0.0000 O   0  0  0  0  0  0  0  0  0  0  0  0
    5.0781   -0.2284    0.0000 C   0  0  0  0  0  0  0  0  0  0  0  0
    5.8548   -0.4961    0.0000 C   0  0  0  0  0  0  0  0  0  0  0  0
    4.2426   -0.9986    0.0000 C   0  0  0  0  0  0  0  0  0  0  0  0
    0.0000   -4.3014    0.0000 O   0  0  0  0  0  0  0  0  0  0  0  0
    6.5271    0.0000    0.0000 O   0  0  0  0  0  0  0  0  0  0  0  0
    2.1409   -2.2257    0.0000 C   0  0  0  0  0  0  0  0  0  0  0  0
    4.2883   -4.3014    0.0000 S   0  0  0  0  0  0  0  0  0  0  0  0
    4.2883   -5.1303    0.0000 C   0  0  0  0  0  0  0  0  0  0  0  0
    4.9998   -5.5415    0.0000 O   0  0  0  0  0  0  0  0  0  0  0  0
    3.5703   -5.5415    0.0000 C   0  0  0  0  0  0  0  0  0  0  0  0
  1  3  1  0
  1  7  1  0
  1  2  1  0
  1 25  1  1
  2  4  2  0
  2  9  1  0
  3  5  1  0
  4  6  1  0
  5  6  1  0
  6 23  2  0
  7 11  1  1
  7  8  1  0
  8 10  1  6
  8 13  1  0
  9 10  1  0
 10 26  1  6
 11 12  1  0
 12 14  1  0
 13 15  1  1
 13 14  1  0
 14 17  1  0
 14 22  1  1
 15 16  1  0
 17 16  1  6
 17 18  1  0
 17 19  1  0
 18 20  1  0
 19 21  1  0
 20 21  1  0
 21 24  2  0
 26 27  1  0
 27 28  2  0
 27 29  1  0
M  END
>  <Formula>  (617) 
C24H32O4S

>  <FW>  (617) 
416.5735

>  <DSSTox_CID>  (617) 
14186

>  <NR-Aromatase>  (617) 
1

>  <NR-AR>  (617) 
1

>  <NR-AR-LBD>  (617) 
1

>  <NR-ER>  (617) 
0

>  <NR-ER-LBD>  (617) 
0

>  <NR-AhR>  (617) 
0

>  <SR-HSE>  (617) 
0

>  <SR-p53>  (617) 
1

$$$$
NCGC00094644-01
     RDKit          2D

 34 35  0  0  1  0  0  0  0  0999 V2000
    7.6496    0.0000    0.0000 Na  0  0  0  0  0 15  0  0  0  0  0  0
    8.6144   -1.9985    0.0000 Na  0  0  0  0  0 15  0  0  0  0  0  0
    4.2642   -2.6360    0.0000 C   0  0  0  0  0  0  0  0  0  0  0  0
    2.8686   -3.4630    0.0000 C   0  0  0  0  0  0  0  0  0  0  0  0
    2.1364   -3.8593    0.0000 C   0  0  0  0  0  0  0  0  0  0  0  0
    4.2642   -3.4630    0.0000 C   0  0  0  0  0  0  0  0  0  0  0  0
    3.5577   -3.8593    0.0000 C   0  0  0  0  0  0  0  0  0  0  0  0
    5.0739   -2.4034    0.0000 C   0  0  0  0  0  0  0  0  0  0  0  0
    2.1364   -4.6863    0.0000 C   0  0  0  0  0  0  0  0  0  0  0  0
    2.8686   -2.6360    0.0000 C   0  0  0  0  0  0  0  0  0  0  0  0
    3.5577   -2.2484    0.0000 C   0  0  0  0  0  0  0  0  0  0  0  0
    5.5391   -3.0495    0.0000 C   0  0  0  0  0  0  0  0  0  0  0  0
    1.4558   -3.4630    0.0000 C   0  0  0  0  0  0  0  0  0  0  0  0
    5.0566   -3.7128    0.0000 C   0  0  0  0  0  0  0  0  0  0  0  0
    1.4558   -5.1084    0.0000 C   0  0  0  0  0  0  0  0  0  0  0  0
    5.0739   -1.5678    0.0000 C   0  0  0  0  0  0  0  0  0  0  0  0
    3.5577   -4.6863    0.0000 C   0  0  0  0  0  0  0  0  0  0  0  0
    0.7322   -3.8593    0.0000 C   0  0  0  0  0  0  0  0  0  0  0  0
    0.7322   -4.6863    0.0000 C   0  0  0  0  0  0  0  0  0  0  0  0
    2.8686   -5.1084    0.0000 C   0  0  0  0  0  0  0  0  0  0  0  0
    2.8341   -4.1694    0.0000 F   0  0  0  0  0  0  0  0  0  0  0  0
    4.3589   -1.1457    0.0000 O   0  0  0  0  0  0  0  0  0  0  0  0
    0.0000   -5.1256    0.0000 O   0  0  0  0  0  0  0  0  0  0  0  0
    5.8664   -2.3776    0.0000 O   0  0  0  0  0  0  0  0  0  0  0  0
    4.2642   -1.8004    0.0000 C   0  0  0  0  0  0  0  0  0  0  0  0
    2.1364   -2.2225    0.0000 O   0  0  0  0  0  0  0  0  0  0  0  0
    2.1364   -3.0495    0.0000 C   0  0  0  0  0  0  0  0  0  0  0  0
    6.3574   -3.0495    0.0000 C   0  0  0  0  0  0  0  0  0  0  0  0
    5.7717   -1.1629    0.0000 C   0  0  0  0  0  0  0  0  0  0  0  0
    6.4953   -1.5850    0.0000 O   0  0  0  0  0  0  0  0  0  0  0  0
    7.2016   -1.1974    0.0000 P   0  0  0  0  0  0  0  0  0  0  0  0
    7.9166   -0.7753    0.0000 O   0  0  0  0  0  0  0  0  0  0  0  0
    6.7968   -0.4738    0.0000 O   0  0  0  0  0  0  0  0  0  0  0  0
    7.6065   -1.9038    0.0000 O   0  0  0  0  0  0  0  0  0  0  0  0
  3  6  1  0
  3  8  1  0
  3 11  1  0
  3 25  1  1
  4 10  1  0
  4  5  1  0
  4 21  1  6
  4  7  1  0
  5  9  1  0
  5 13  1  0
  5 27  1  1
  6  7  1  0
  6 14  1  1
  7 17  1  6
  8 12  1  0
  8 16  1  0
  8 24  1  6
  9 15  2  0
  9 20  1  0
 10 11  1  0
 10 26  1  1
 12 28  1  6
 12 14  1  0
 13 18  2  0
 15 19  1  0
 16 22  2  0
 16 29  1  0
 17 20  1  0
 18 19  1  0
 19 23  2  0
 29 30  1  0
 30 31  1  0
 31 32  2  0
 31 33  1  0
 31 34  1  0
M  CHG  4   1   1   2   1  33  -1  34  -1
M  END
>  <Formula>  (618) 
C22H28FNa2O8P

>  <FW>  (618) 
516.4046 (22.9892+22.9892+470.4262)

>  <DSSTox_CID>  (618) 
27429

>  <NR-AR>  (618) 
1

>  <NR-AR-LBD>  (618) 
1

>  <NR-ER>  (618) 
1

>  <NR-PPAR-gamma>  (618) 
0

>  <NR-AhR>  (618) 
0

>  <SR-MMP>  (618) 
0

>  <SR-p53>  (618) 
0

$$$$
NCGC00022003-03
     RDKit          2D

 35 38  0  0  1  0  0  0  0  0999 V2000
    2.1594   -3.5712    0.0000 C   0  0  0  0  0  0  0  0  0  0  0  0
    4.2910   -2.3324    0.0000 C   0  0  0  0  0  0  0  0  0  0  0  0
    2.8722   -3.1560    0.0000 C   0  0  0  0  0  0  0  0  0  0  0  0
    2.1594   -4.3949    0.0000 C   0  0  0  0  0  0  0  0  0  0  0  0
    4.2910   -3.1560    0.0000 C   0  0  0  0  0  0  0  0  0  0  0  0
    3.5920   -3.5712    0.0000 C   0  0  0  0  0  0  0  0  0  0  0  0
    5.0800   -2.0763    0.0000 C   0  0  0  0  0  0  0  0  0  0  0  0
    2.8722   -2.3324    0.0000 C   0  0  0  0  0  0  0  0  0  0  0  0
    1.4396   -3.1560    0.0000 C   0  0  0  0  0  0  0  0  0  0  0  0
    3.5920   -1.9241    0.0000 C   0  0  0  0  0  0  0  0  0  0  0  0
    5.5645   -2.7476    0.0000 C   0  0  0  0  0  0  0  0  0  0  0  0
    5.0800   -3.4259    0.0000 C   0  0  0  0  0  0  0  0  0  0  0  0
    3.5920   -4.3949    0.0000 C   0  0  0  0  0  0  0  0  0  0  0  0
    2.8722   -4.8101    0.0000 C   0  0  0  0  0  0  0  0  0  0  0  0
    1.4396   -4.8101    0.0000 C   0  0  0  0  0  0  0  0  0  0  0  0
    5.0800   -1.2527    0.0000 C   0  0  0  0  0  0  0  0  0  0  0  0
    0.7336   -3.5712    0.0000 C   0  0  0  0  0  0  0  0  0  0  0  0
    0.7336   -4.3810    0.0000 C   0  0  0  0  0  0  0  0  0  0  0  0
    2.8584   -3.9450    0.0000 F   0  0  0  0  0  0  0  0  0  0  0  0
    5.7998   -0.8652    0.0000 O   0  0  0  0  0  0  0  0  0  0  0  0
    0.0000   -4.7894    0.0000 O   0  0  0  0  0  0  0  0  0  0  0  0
    5.7098   -1.5849    0.0000 O   0  0  0  0  0  0  0  0  0  0  0  0
    2.1594   -2.7407    0.0000 C   0  0  0  0  0  0  0  0  0  0  0  0
    4.3118   -1.5503    0.0000 C   0  0  0  0  0  0  0  0  0  0  0  0
    2.1594   -1.9171    0.0000 O   0  0  0  0  0  0  0  0  0  0  0  0
    2.8722   -5.6337    0.0000 F   0  0  0  0  0  0  0  0  0  0  0  0
    6.3881   -2.9553    0.0000 C   0  0  0  0  0  0  0  0  0  0  0  0
    4.3810   -0.8444    0.0000 C   0  0  0  0  0  0  0  0  0  0  0  0
    3.6612   -1.2389    0.0000 O   0  0  0  0  0  0  0  0  0  0  0  0
    2.9553   -0.8236    0.0000 C   0  0  0  0  0  0  0  0  0  0  0  0
    2.9553    0.0000    0.0000 O   0  0  0  0  0  0  0  0  0  0  0  0
    2.2424   -1.2320    0.0000 C   0  0  0  0  0  0  0  0  0  0  0  0
    6.4642   -1.9033    0.0000 C   0  0  0  0  0  0  0  0  0  0  0  0
    6.9210   -1.2181    0.0000 O   0  0  0  0  0  0  0  0  0  0  0  0
    6.8310   -2.6508    0.0000 C   0  0  0  0  0  0  0  0  0  0  0  0
  1  3  1  0
  1  4  1  0
  1  9  1  0
  1 23  1  1
  2 10  1  0
  2  7  1  0
  2 24  1  1
  2  5  1  0
  3  6  1  0
  3  8  1  0
  3 19  1  6
  4 14  1  0
  4 15  2  0
  5  6  1  0
  5 12  1  1
  6 13  1  6
  7 16  1  0
  7 22  1  6
  7 11  1  0
  8 10  1  0
  8 25  1  1
  9 17  2  0
 11 12  1  0
 11 27  1  1
 13 14  1  0
 14 26  1  6
 15 18  1  0
 16 20  2  0
 16 28  1  0
 17 18  1  0
 18 21  2  0
 22 33  1  0
 28 29  1  0
 29 30  1  0
 30 31  2  0
 30 32  1  0
 33 34  2  0
 33 35  1  0
M  END
>  <Formula>  (619) 
C26H32F2O7

>  <FW>  (619) 
494.5249

>  <DSSTox_CID>  (619) 
25646

>  <NR-AR>  (619) 
1

>  <NR-AR-LBD>  (619) 
1

>  <NR-ER-LBD>  (619) 
0

>  <NR-PPAR-gamma>  (619) 
0

>  <SR-ATAD5>  (619) 
0

>  <SR-MMP>  (619) 
1

>  <SR-p53>  (619) 
0

$$$$
NCGC00167484-01
     RDKit          2D

 39 44  0  0  1  0  0  0  0  0999 V2000
    4.3025   -3.9743    0.0000 C   0  0  0  0  0  0  0  0  0  0  0  0
    4.3025   -4.7815    0.0000 C   0  0  0  0  0  0  0  0  0  0  0  0
    2.8565   -4.7815    0.0000 C   0  0  0  0  0  0  0  0  0  0  0  0
    3.5839   -5.1896    0.0000 C   0  0  0  0  0  0  0  0  0  0  0  0
    2.1468   -5.1896    0.0000 C   0  0  0  0  0  0  0  0  0  0  0  0
    5.0742   -3.7170    0.0000 C   0  0  0  0  0  0  0  0  0  0  0  0
    3.5839   -3.5573    0.0000 C   0  0  0  0  0  0  0  0  0  0  0  0
    2.8565   -3.9743    0.0000 C   0  0  0  0  0  0  0  0  0  0  0  0
    5.0742   -5.0476    0.0000 C   0  0  0  0  0  0  0  0  0  0  0  0
    5.5533   -4.3823    0.0000 C   0  0  0  0  0  0  0  0  0  0  0  0
    3.5839   -6.0235    0.0000 C   0  0  0  0  0  0  0  0  0  0  0  0
    2.1468   -6.0235    0.0000 C   0  0  0  0  0  0  0  0  0  0  0  0
    2.8565   -6.4315    0.0000 C   0  0  0  0  0  0  0  0  0  0  0  0
    4.3025   -3.1315    0.0000 C   0  0  0  0  0  0  0  0  0  0  0  0
    2.1468   -4.3734    0.0000 C   0  0  0  0  0  0  0  0  0  0  0  0
    1.4460   -4.7815    0.0000 C   0  0  0  0  0  0  0  0  0  0  0  0
    1.4460   -6.4315    0.0000 C   0  0  0  0  0  0  0  0  0  0  0  0
    0.7274   -5.1896    0.0000 C   0  0  0  0  0  0  0  0  0  0  0  0
    0.7274   -6.0235    0.0000 C   0  0  0  0  0  0  0  0  0  0  0  0
    5.7485   -3.0871    0.0000 O   0  0  0  0  0  0  0  0  0  0  0  0
    2.1468   -3.5573    0.0000 O   0  0  0  0  0  0  0  0  0  0  0  0
    6.3073   -4.3823    0.0000 O   0  0  0  0  0  0  0  0  0  0  0  0
    5.0742   -2.8920    0.0000 C   0  0  0  0  0  0  0  0  0  0  0  0
    5.7840   -2.4751    0.0000 C   0  0  0  0  0  0  0  0  0  0  0  0
    5.7840   -1.6500    0.0000 O   0  0  0  0  0  0  0  0  0  0  0  0
    0.0000   -6.4404    0.0000 O   0  0  0  0  0  0  0  0  0  0  0  0
    4.3646   -2.4839    0.0000 O   0  0  0  0  0  0  0  0  0  0  0  0
    6.5380   -3.5396    0.0000 C   0  0  0  0  0  0  0  0  0  0  0  0
    7.3098   -3.2645    0.0000 C   0  0  0  0  0  0  0  0  0  0  0  0
    7.4606   -2.4484    0.0000 C   0  0  0  0  0  0  0  0  0  0  0  0
    7.9396   -3.8057    0.0000 C   0  0  0  0  0  0  0  0  0  0  0  0
    8.2324   -2.1734    0.0000 C   0  0  0  0  0  0  0  0  0  0  0  0
    8.7114   -3.5307    0.0000 C   0  0  0  0  0  0  0  0  0  0  0  0
    8.8711   -2.7145    0.0000 C   0  0  0  0  0  0  0  0  0  0  0  0
    6.4936   -0.4169    0.0000 C   0  0  0  0  0  0  0  0  0  0  0  0
    5.7840    0.0000    0.0000 C   0  0  0  0  0  0  0  0  0  0  0  0
    7.2211    0.0000    0.0000 C   0  0  0  0  0  0  0  0  0  0  0  0
    6.4936   -1.2419    0.0000 C   0  0  0  0  0  0  0  0  0  0  0  0
    7.2211   -1.6500    0.0000 O   0  0  0  0  0  0  0  0  0  0  0  0
  1  2  1  0
  1  6  1  0
  1  7  1  0
  1 14  1  1
  2  4  1  0
  2  9  1  1
  3  8  1  1
  3  5  1  0
  3  4  1  0
  4 11  1  6
  5 12  1  0
  5 15  1  1
  5 16  1  0
  6 10  1  0
  6 20  1  0
  6 23  1  1
  7  8  1  0
  8 21  1  1
 10  9  1  6
 10 22  1  0
 11 13  1  0
 12 17  2  0
 12 13  1  0
 16 18  2  0
 17 19  1  0
 18 19  1  0
 19 26  2  0
 20 28  1  0
 22 28  1  0
 23 24  1  0
 23 27  2  0
 24 25  1  0
 25 38  1  0
 28 29  1  6
 29 30  1  0
 29 31  1  0
 30 32  1  0
 31 33  1  0
 32 34  1  0
 33 34  1  0
 35 36  1  0
 35 37  1  0
 35 38  1  0
 38 39  2  0
M  END
>  <Formula>  (620) 
C32H44O7

>  <FW>  (620) 
540.6876

>  <DSSTox_CID>  (620) 
26659

>  <NR-AR>  (620) 
1

>  <NR-ER-LBD>  (620) 
0

>  <NR-PPAR-gamma>  (620) 
0

>  <NR-AhR>  (620) 
0

>  <SR-ATAD5>  (620) 
0

>  <SR-MMP>  (620) 
1

>  <SR-p53>  (620) 
0

$$$$
NCGC00016984-01
     RDKit          2D

 36 39  0  0  1  0  0  0  0  0999 V2000
    4.2914   -3.9908    0.0000 C   0  0  0  0  0  0  0  0  0  0  0  0
    2.1795   -5.2234    0.0000 C   0  0  0  0  0  0  0  0  0  0  0  0
    4.2914   -4.8325    0.0000 C   0  0  0  0  0  0  0  0  0  0  0  0
    2.8785   -4.8325    0.0000 C   0  0  0  0  0  0  0  0  0  0  0  0
    3.5774   -5.2234    0.0000 C   0  0  0  0  0  0  0  0  0  0  0  0
    5.0956   -3.7277    0.0000 C   0  0  0  0  0  0  0  0  0  0  0  0
    2.1795   -6.0651    0.0000 C   0  0  0  0  0  0  0  0  0  0  0  0
    2.8785   -3.9908    0.0000 C   0  0  0  0  0  0  0  0  0  0  0  0
    3.5774   -3.5774    0.0000 C   0  0  0  0  0  0  0  0  0  0  0  0
    3.5774   -6.0651    0.0000 C   0  0  0  0  0  0  0  0  0  0  0  0
    5.5616   -4.4042    0.0000 C   0  0  0  0  0  0  0  0  0  0  0  0
    1.4806   -4.8325    0.0000 C   0  0  0  0  0  0  0  0  0  0  0  0
    5.0956   -5.0656    0.0000 C   0  0  0  0  0  0  0  0  0  0  0  0
    1.4806   -6.4710    0.0000 C   0  0  0  0  0  0  0  0  0  0  0  0
    2.8785   -6.4710    0.0000 C   0  0  0  0  0  0  0  0  0  0  0  0
    5.0956   -2.9086    0.0000 C   0  0  0  0  0  0  0  0  0  0  0  0
    0.7366   -5.2234    0.0000 C   0  0  0  0  0  0  0  0  0  0  0  0
    0.7366   -6.0651    0.0000 C   0  0  0  0  0  0  0  0  0  0  0  0
    4.3741   -2.4726    0.0000 O   0  0  0  0  0  0  0  0  0  0  0  0
    0.0000   -6.5010    0.0000 O   0  0  0  0  0  0  0  0  0  0  0  0
    5.9148   -3.7277    0.0000 O   0  0  0  0  0  0  0  0  0  0  0  0
    4.2539   -6.4635    0.0000 Cl  0  0  0  0  0  0  0  0  0  0  0  0
    4.2914   -3.1490    0.0000 C   0  0  0  0  0  0  0  0  0  0  0  0
    2.1495   -3.5549    0.0000 O   0  0  0  0  0  0  0  0  0  0  0  0
    2.1795   -4.4042    0.0000 C   0  0  0  0  0  0  0  0  0  0  0  0
    5.7870   -2.5027    0.0000 C   0  0  0  0  0  0  0  0  0  0  0  0
    6.4033   -4.3966    0.0000 C   0  0  0  0  0  0  0  0  0  0  0  0
    5.7870   -1.6610    0.0000 O   0  0  0  0  0  0  0  0  0  0  0  0
    6.5010   -1.2476    0.0000 C   0  0  0  0  0  0  0  0  0  0  0  0
    7.2225   -1.6610    0.0000 O   0  0  0  0  0  0  0  0  0  0  0  0
    6.5010   -0.4134    0.0000 C   0  0  0  0  0  0  0  0  0  0  0  0
    7.2225    0.0000    0.0000 C   0  0  0  0  0  0  0  0  0  0  0  0
    6.4935   -3.1490    0.0000 C   0  0  0  0  0  0  0  0  0  0  0  0
    7.2826   -3.3595    0.0000 C   0  0  0  0  0  0  0  0  0  0  0  0
    6.2906   -2.3373    0.0000 O   0  0  0  0  0  0  0  0  0  0  0  0
    7.5157   -4.1637    0.0000 C   0  0  0  0  0  0  0  0  0  0  0  0
  1  3  1  0
  1  6  1  0
  1  9  1  0
  1 23  1  1
  2  4  1  0
  2  7  1  0
  2 12  1  0
  2 25  1  1
  3  5  1  0
  3 13  1  1
  4  8  1  1
  4  5  1  0
  5 10  1  6
  6 11  1  0
  6 16  1  0
  6 21  1  6
  7 14  2  0
  7 15  1  0
  8  9  1  0
  8 24  1  1
 10 15  1  0
 10 22  1  6
 11 27  1  6
 11 13  1  0
 12 17  2  0
 14 18  1  0
 16 19  2  0
 16 26  1  0
 17 18  1  0
 18 20  2  0
 21 33  1  0
 26 28  1  0
 28 29  1  0
 29 30  2  0
 29 31  1  0
 31 32  1  0
 33 34  1  0
 33 35  2  0
 34 36  1  0
M  END
>  <Formula>  (621) 
C28H37ClO7

>  <FW>  (621) 
521.0422

>  <DSSTox_CID>  (621) 
25535

>  <NR-AR>  (621) 
1

>  <NR-AR-LBD>  (621) 
1

>  <NR-ER-LBD>  (621) 
0

>  <NR-PPAR-gamma>  (621) 
0

>  <SR-ATAD5>  (621) 
0

>  <SR-MMP>  (621) 
0

>  <SR-p53>  (621) 
0

$$$$
NCGC00183597-01
     RDKit          2D

 37 40  0  0  1  0  0  0  0  0999 V2000
    4.3165   -3.5652    0.0000 C   0  0  0  0  0  0  0  0  0  0  0  0
    2.8875   -4.3902    0.0000 C   0  0  0  0  0  0  0  0  0  0  0  0
    2.1656   -4.7953    0.0000 C   0  0  0  0  0  0  0  0  0  0  0  0
    4.3165   -4.3902    0.0000 C   0  0  0  0  0  0  0  0  0  0  0  0
    3.5946   -4.7953    0.0000 C   0  0  0  0  0  0  0  0  0  0  0  0
    5.0899   -3.3074    0.0000 C   0  0  0  0  0  0  0  0  0  0  0  0
    2.1656   -5.6276    0.0000 C   0  0  0  0  0  0  0  0  0  0  0  0
    2.8875   -3.5652    0.0000 C   0  0  0  0  0  0  0  0  0  0  0  0
    3.5946   -3.1527    0.0000 C   0  0  0  0  0  0  0  0  0  0  0  0
    5.5908   -3.9777    0.0000 C   0  0  0  0  0  0  0  0  0  0  0  0
    1.4658   -4.3902    0.0000 C   0  0  0  0  0  0  0  0  0  0  0  0
    5.1047   -4.6333    0.0000 C   0  0  0  0  0  0  0  0  0  0  0  0
    1.4658   -6.0475    0.0000 C   0  0  0  0  0  0  0  0  0  0  0  0
    5.0899   -2.4603    0.0000 C   0  0  0  0  0  0  0  0  0  0  0  0
    3.5946   -5.6276    0.0000 C   0  0  0  0  0  0  0  0  0  0  0  0
    0.7439   -4.7953    0.0000 C   0  0  0  0  0  0  0  0  0  0  0  0
    0.7439   -5.6276    0.0000 C   0  0  0  0  0  0  0  0  0  0  0  0
    2.8875   -6.0475    0.0000 C   0  0  0  0  0  0  0  0  0  0  0  0
    2.8654   -5.1047    0.0000 F   0  0  0  0  0  0  0  0  0  0  0  0
    5.8044   -2.0625    0.0000 O   0  0  0  0  0  0  0  0  0  0  0  0
    0.0000   -6.0549    0.0000 O   0  0  0  0  0  0  0  0  0  0  0  0
    5.9370   -3.3147    0.0000 O   0  0  0  0  0  0  0  0  0  0  0  0
    4.3165   -2.7328    0.0000 C   0  0  0  0  0  0  0  0  0  0  0  0
    2.1509   -3.1453    0.0000 O   0  0  0  0  0  0  0  0  0  0  0  0
    2.1656   -3.9777    0.0000 C   0  0  0  0  0  0  0  0  0  0  0  0
    6.4158   -3.9703    0.0000 C   0  0  0  0  0  0  0  0  0  0  0  0
    4.3975   -2.0625    0.0000 C   0  0  0  0  0  0  0  0  0  0  0  0
    4.3975   -1.2375    0.0000 O   0  0  0  0  0  0  0  0  0  0  0  0
    6.6515   -2.8948    0.0000 C   0  0  0  0  0  0  0  0  0  0  0  0
    7.3660   -3.3147    0.0000 O   0  0  0  0  0  0  0  0  0  0  0  0
    6.6515   -2.0772    0.0000 C   0  0  0  0  0  0  0  0  0  0  0  0
    7.3660   -1.6647    0.0000 C   0  0  0  0  0  0  0  0  0  0  0  0
    7.3660   -0.8397    0.0000 C   0  0  0  0  0  0  0  0  0  0  0  0
    3.6830   -0.8250    0.0000 C   0  0  0  0  0  0  0  0  0  0  0  0
    3.6830    0.0000    0.0000 O   0  0  0  0  0  0  0  0  0  0  0  0
    2.9685   -1.2227    0.0000 C   0  0  0  0  0  0  0  0  0  0  0  0
    2.2540   -0.8250    0.0000 C   0  0  0  0  0  0  0  0  0  0  0  0
  1  4  1  0
  1  6  1  0
  1  9  1  0
  1 23  1  1
  2  8  1  0
  2  3  1  0
  2 19  1  6
  2  5  1  0
  3  7  1  0
  3 11  1  0
  3 25  1  1
  4  5  1  0
  4 12  1  1
  5 15  1  6
  6 10  1  0
  6 14  1  0
  6 22  1  6
  7 13  2  0
  7 18  1  0
  8  9  1  0
  8 24  1  1
 10 26  1  1
 10 12  1  0
 11 16  2  0
 13 17  1  0
 14 20  2  0
 14 27  1  0
 15 18  1  0
 16 17  1  0
 17 21  2  0
 22 29  1  0
 27 28  1  0
 28 34  1  0
 29 30  2  0
 29 31  1  0
 31 32  1  0
 32 33  1  0
 34 35  2  0
 34 36  1  0
 36 37  1  0
M  END
>  <Formula>  (622) 
C29H39FO7

>  <FW>  (622) 
518.6142

>  <DSSTox_CID>  (622) 
2671

>  <NR-AR>  (622) 
1

>  <NR-AR-LBD>  (622) 
1

>  <NR-ER>  (622) 
0

>  <NR-ER-LBD>  (622) 
0

>  <SR-ATAD5>  (622) 
0

>  <SR-MMP>  (622) 
1

>  <SR-p53>  (622) 
0

$$$$
NCGC00094799-01
     RDKit          2D

 28 31  0  0  1  0  0  0  0  0999 V2000
    4.2947   -1.5012    0.0000 C   0  0  0  0  0  0  0  0  0  0  0  0
    2.8849   -2.3170    0.0000 C   0  0  0  0  0  0  0  0  0  0  0  0
    5.0844   -1.2597    0.0000 C   0  0  0  0  0  0  0  0  0  0  0  0
    2.1669   -2.7348    0.0000 C   0  0  0  0  0  0  0  0  0  0  0  0
    4.2947   -2.3301    0.0000 C   0  0  0  0  0  0  0  0  0  0  0  0
    3.5833   -2.7348    0.0000 C   0  0  0  0  0  0  0  0  0  0  0  0
    2.1669   -3.5637    0.0000 C   0  0  0  0  0  0  0  0  0  0  0  0
    2.8849   -1.5012    0.0000 C   0  0  0  0  0  0  0  0  0  0  0  0
    5.5609   -1.8993    0.0000 C   0  0  0  0  0  0  0  0  0  0  0  0
    3.5702   -1.0835    0.0000 C   0  0  0  0  0  0  0  0  0  0  0  0
    1.4555   -2.3170    0.0000 C   0  0  0  0  0  0  0  0  0  0  0  0
    5.0844   -2.5585    0.0000 C   0  0  0  0  0  0  0  0  0  0  0  0
    1.4555   -3.9683    0.0000 C   0  0  0  0  0  0  0  0  0  0  0  0
    5.0844   -0.4308    0.0000 C   0  0  0  0  0  0  0  0  0  0  0  0
    3.5833   -3.5637    0.0000 C   0  0  0  0  0  0  0  0  0  0  0  0
    0.7441   -2.7348    0.0000 C   0  0  0  0  0  0  0  0  0  0  0  0
    0.7441   -3.5637    0.0000 C   0  0  0  0  0  0  0  0  0  0  0  0
    2.8849   -3.9683    0.0000 C   0  0  0  0  0  0  0  0  0  0  0  0
    2.8980   -3.1068    0.0000 F   0  0  0  0  0  0  0  0  0  0  0  0
    4.3600    0.0000    0.0000 O   0  0  0  0  0  0  0  0  0  0  0  0
    0.0000   -3.9553    0.0000 O   0  0  0  0  0  0  0  0  0  0  0  0
    4.2947   -0.6788    0.0000 C   0  0  0  0  0  0  0  0  0  0  0  0
    2.1539   -1.0835    0.0000 O   0  0  0  0  0  0  0  0  0  0  0  0
    6.3898   -1.8732    0.0000 O   0  0  0  0  0  0  0  0  0  0  0  0
    2.1669   -1.8993    0.0000 C   0  0  0  0  0  0  0  0  0  0  0  0
    5.8024    0.0000    0.0000 C   0  0  0  0  0  0  0  0  0  0  0  0
    6.5269   -0.3851    0.0000 O   0  0  0  0  0  0  0  0  0  0  0  0
    5.8024   -0.8485    0.0000 O   0  0  0  0  0  0  0  0  0  0  0  0
  1  3  1  0
  1  5  1  0
  1 10  1  0
  1 22  1  1
  2  8  1  0
  2  4  1  0
  2 19  1  6
  2  6  1  0
  3  9  1  0
  3 14  1  0
  3 28  1  6
  4  7  1  0
  4 11  1  0
  4 25  1  1
  5  6  1  0
  5 12  1  1
  6 15  1  6
  7 13  2  0
  7 18  1  0
  8 10  1  0
  8 23  1  1
  9 24  1  6
  9 12  1  0
 11 16  2  0
 13 17  1  0
 14 20  2  0
 14 26  1  0
 15 18  1  0
 16 17  1  0
 17 21  2  0
 26 27  1  0
M  END
>  <Formula>  (623) 
C21H27FO6

>  <FW>  (623) 
394.4339

>  <DSSTox_CID>  (623) 
20742

>  <NR-AR>  (623) 
1

>  <NR-AR-LBD>  (623) 
1

>  <NR-ER>  (623) 
1

>  <NR-PPAR-gamma>  (623) 
0

>  <NR-AhR>  (623) 
0

>  <SR-MMP>  (623) 
0

>  <SR-p53>  (623) 
0

$$$$
NCGC00159474-02
     RDKit          2D

 27 30  0  0  1  0  0  0  0  0999 V2000
    2.1799   -2.8775    0.0000 C   0  0  0  0  0  0  0  0  0  0  0  0
    4.3128   -1.6366    0.0000 C   0  0  0  0  0  0  0  0  0  0  0  0
    2.1799   -3.7025    0.0000 C   0  0  0  0  0  0  0  0  0  0  0  0
    5.1110   -1.3817    0.0000 C   0  0  0  0  0  0  0  0  0  0  0  0
    2.8976   -2.4750    0.0000 C   0  0  0  0  0  0  0  0  0  0  0  0
    3.6085   -2.8775    0.0000 C   0  0  0  0  0  0  0  0  0  0  0  0
    4.3128   -2.4750    0.0000 C   0  0  0  0  0  0  0  0  0  0  0  0
    1.4555   -2.4750    0.0000 C   0  0  0  0  0  0  0  0  0  0  0  0
    3.6085   -1.2207    0.0000 C   0  0  0  0  0  0  0  0  0  0  0  0
    2.8976   -1.6366    0.0000 C   0  0  0  0  0  0  0  0  0  0  0  0
    3.6085   -3.7025    0.0000 C   0  0  0  0  0  0  0  0  0  0  0  0
    2.8976   -4.1116    0.0000 C   0  0  0  0  0  0  0  0  0  0  0  0
    1.4555   -4.1116    0.0000 C   0  0  0  0  0  0  0  0  0  0  0  0
    5.3391   -0.5969    0.0000 C   0  0  0  0  0  0  0  0  0  0  0  0
    5.5872   -2.0457    0.0000 C   0  0  0  0  0  0  0  0  0  0  0  0
    5.1110   -2.7299    0.0000 C   0  0  0  0  0  0  0  0  0  0  0  0
    0.7445   -2.8775    0.0000 C   0  0  0  0  0  0  0  0  0  0  0  0
    0.7445   -3.7025    0.0000 C   0  0  0  0  0  0  0  0  0  0  0  0
    4.7757    0.0000    0.0000 O   0  0  0  0  0  0  0  0  0  0  0  0
    0.0000   -4.1116    0.0000 O   0  0  0  0  0  0  0  0  0  0  0  0
    5.9427   -1.4421    0.0000 O   0  0  0  0  0  0  0  0  0  0  0  0
    2.1799   -2.0457    0.0000 C   0  0  0  0  0  0  0  0  0  0  0  0
    4.3128   -0.7982    0.0000 C   0  0  0  0  0  0  0  0  0  0  0  0
    2.8976   -4.9433    0.0000 F   0  0  0  0  0  0  0  0  0  0  0  0
    2.1799   -1.2140    0.0000 O   0  0  0  0  0  0  0  0  0  0  0  0
    6.1439   -0.3890    0.0000 C   0  0  0  0  0  0  0  0  0  0  0  0
    6.7074   -0.9927    0.0000 O   0  0  0  0  0  0  0  0  0  0  0  0
  1  3  1  0
  1  5  1  0
  1  8  1  0
  1 22  1  1
  2  9  1  0
  2  4  1  0
  2 23  1  1
  2  7  1  0
  3 12  1  0
  3 13  2  0
  4 14  1  0
  4 21  1  6
  4 15  1  0
  5  6  1  0
  5 10  1  1
  6  7  1  0
  6 11  1  6
  7 16  1  1
  8 17  2  0
  9 10  1  0
 10 25  1  1
 11 12  1  0
 12 24  1  6
 13 18  1  0
 14 19  2  0
 14 26  1  0
 15 16  1  0
 17 18  1  0
 18 20  2  0
 26 27  1  0
M  END
>  <Formula>  (624) 
C21H27FO5

>  <FW>  (624) 
378.4345

>  <DSSTox_CID>  (624) 
26067

>  <NR-AR>  (624) 
1

>  <NR-AR-LBD>  (624) 
1

>  <NR-ER-LBD>  (624) 
0

>  <NR-PPAR-gamma>  (624) 
0

>  <SR-ATAD5>  (624) 
0

>  <SR-MMP>  (624) 
0

>  <SR-p53>  (624) 
0

$$$$
NCGC00091032-03
     RDKit          2D

 29 33  0  0  1  0  0  0  0  0999 V2000
    2.1521   -2.9413    0.0000 C   0  0  0  0  0  0  0  0  0  0  0  0
    2.1521   -3.7735    0.0000 C   0  0  0  0  0  0  0  0  0  0  0  0
    1.4563   -2.5324    0.0000 C   0  0  0  0  0  0  0  0  0  0  0  0
    0.7174   -2.9628    0.0000 C   0  0  0  0  0  0  0  0  0  0  0  0
    4.2900   -1.7074    0.0000 C   0  0  0  0  0  0  0  0  0  0  0  0
    2.8767   -2.5324    0.0000 C   0  0  0  0  0  0  0  0  0  0  0  0
    3.5798   -2.9628    0.0000 C   0  0  0  0  0  0  0  0  0  0  0  0
    0.7174   -2.1379    0.0000 C   0  0  0  0  0  0  0  0  0  0  0  0
    2.8767   -4.1895    0.0000 C   0  0  0  0  0  0  0  0  0  0  0  0
    1.4563   -4.1895    0.0000 C   0  0  0  0  0  0  0  0  0  0  0  0
    5.0576   -1.4491    0.0000 C   0  0  0  0  0  0  0  0  0  0  0  0
    3.5798   -3.7950    0.0000 C   0  0  0  0  0  0  0  0  0  0  0  0
    4.2900   -2.5324    0.0000 C   0  0  0  0  0  0  0  0  0  0  0  0
    0.7174   -3.7735    0.0000 C   0  0  0  0  0  0  0  0  0  0  0  0
    3.5654   -1.3200    0.0000 C   0  0  0  0  0  0  0  0  0  0  0  0
    2.8767   -1.7074    0.0000 C   0  0  0  0  0  0  0  0  0  0  0  0
    5.5454   -2.1379    0.0000 C   0  0  0  0  0  0  0  0  0  0  0  0
    5.0576   -2.7906    0.0000 C   0  0  0  0  0  0  0  0  0  0  0  0
    5.3374   -0.7389    0.0000 C   0  0  0  0  0  0  0  0  0  0  0  0
    0.0000   -4.2828    0.0000 O   0  0  0  0  0  0  0  0  0  0  0  0
    4.9069    0.0000    0.0000 O   0  0  0  0  0  0  0  0  0  0  0  0
    2.8767   -5.0289    0.0000 Cl  0  0  0  0  0  0  0  0  0  0  0  0
    5.9400   -1.4491    0.0000 O   0  0  0  0  0  0  0  0  0  0  0  0
    2.1665   -2.0876    0.0000 C   0  0  0  0  0  0  0  0  0  0  0  0
    4.2900   -0.9613    0.0000 C   0  0  0  0  0  0  0  0  0  0  0  0
    6.1767   -0.7389    0.0000 C   0  0  0  0  0  0  0  0  0  0  0  0
    6.3489   -2.1665    0.0000 C   0  0  0  0  0  0  0  0  0  0  0  0
    7.1739   -2.1665    0.0000 C   0  0  0  0  0  0  0  0  0  0  0  0
    5.9400   -2.8839    0.0000 O   0  0  0  0  0  0  0  0  0  0  0  0
  1  2  1  0
  1  3  1  0
  1  6  1  0
  1 24  1  1
  2  9  1  0
  2 10  2  0
  3  4  1  0
  3  8  1  6
  4 14  1  0
  4  8  1  6
  5 15  1  0
  5 11  1  0
  5 25  1  1
  5 13  1  0
  6  7  1  0
  6 16  1  1
  7 12  1  6
  7 13  1  0
  9 22  1  0
  9 12  2  0
 10 14  1  0
 11 19  1  0
 11 23  1  6
 11 17  1  0
 13 18  1  1
 14 20  2  0
 15 16  1  0
 17 18  1  0
 19 21  2  0
 19 26  1  0
 23 27  1  0
 27 28  1  0
 27 29  2  0
M  END
>  <Formula>  (625) 
C24H29ClO4

>  <FW>  (625) 
416.9377

>  <DSSTox_CID>  (625) 
366

>  <NR-Aromatase>  (625) 
0

>  <NR-AR>  (625) 
1

>  <NR-AR-LBD>  (625) 
0

>  <NR-ER>  (625) 
0

>  <NR-ER-LBD>  (625) 
0

>  <NR-PPAR-gamma>  (625) 
0

>  <NR-AhR>  (625) 
0

>  <SR-ATAD5>  (625) 
0

>  <SR-p53>  (625) 
0

$$$$
NCGC00255456-01
     RDKit          2D

 28 31  0  0  1  0  0  0  0  0999 V2000
    2.1525   -3.5559    0.0000 C   0  0  0  0  0  0  0  0  0  0  0  0
    2.1525   -2.7342    0.0000 C   0  0  0  0  0  0  0  0  0  0  0  0
    4.3122   -1.4762    0.0000 C   0  0  0  0  0  0  0  0  0  0  0  0
    5.0903   -1.2362    0.0000 C   0  0  0  0  0  0  0  0  0  0  0  0
    3.5923   -2.7342    0.0000 C   0  0  0  0  0  0  0  0  0  0  0  0
    3.5923   -3.5559    0.0000 C   0  0  0  0  0  0  0  0  0  0  0  0
    2.8796   -2.3197    0.0000 C   0  0  0  0  0  0  0  0  0  0  0  0
    4.3122   -2.3197    0.0000 C   0  0  0  0  0  0  0  0  0  0  0  0
    2.8796   -3.9631    0.0000 C   0  0  0  0  0  0  0  0  0  0  0  0
    1.4471   -3.9631    0.0000 C   0  0  0  0  0  0  0  0  0  0  0  0
    3.5923   -1.0690    0.0000 C   0  0  0  0  0  0  0  0  0  0  0  0
    5.5702   -1.9125    0.0000 C   0  0  0  0  0  0  0  0  0  0  0  0
    5.8029   -0.8508    0.0000 O   0  0  0  0  0  0  0  0  0  0  0  0
    2.8796   -1.4762    0.0000 C   0  0  0  0  0  0  0  0  0  0  0  0
    5.0903   -2.5597    0.0000 C   0  0  0  0  0  0  0  0  0  0  0  0
    1.4471   -2.3197    0.0000 C   0  0  0  0  0  0  0  0  0  0  0  0
    5.0903   -0.4290    0.0000 C   0  0  0  0  0  0  0  0  0  0  0  0
    6.5374   -1.2362    0.0000 C   0  0  0  0  0  0  0  0  0  0  0  0
    0.7199   -3.5559    0.0000 C   0  0  0  0  0  0  0  0  0  0  0  0
    6.5374   -2.0724    0.0000 O   0  0  0  0  0  0  0  0  0  0  0  0
    5.8174    0.0000    0.0000 O   0  0  0  0  0  0  0  0  0  0  0  0
    0.0000   -3.9704    0.0000 O   0  0  0  0  0  0  0  0  0  0  0  0
    0.7199   -2.7342    0.0000 C   0  0  0  0  0  0  0  0  0  0  0  0
    2.1525   -1.9125    0.0000 C   0  0  0  0  0  0  0  0  0  0  0  0
    4.3122   -0.6472    0.0000 C   0  0  0  0  0  0  0  0  0  0  0  0
    2.8796   -4.7994    0.0000 C   0  0  0  0  0  0  0  0  0  0  0  0
    7.2718   -0.8144    0.0000 C   0  0  0  0  0  0  0  0  0  0  0  0
    4.3849    0.0000    0.0000 C   0  0  0  0  0  0  0  0  0  0  0  0
  1  2  1  0
  1  9  1  0
  1 10  2  0
  2  7  1  0
  2 16  1  0
  2 24  1  1
  3  8  1  0
  3  4  1  0
  3 25  1  1
  3 11  1  0
  4 13  1  6
  4 17  1  0
  4 12  1  0
  5  6  1  6
  5  8  1  0
  5  7  1  0
  6  9  2  0
  7 14  1  1
  8 15  1  1
  9 26  1  0
 10 19  1  0
 11 14  1  0
 12 15  1  0
 13 18  1  0
 16 23  1  0
 17 21  2  0
 17 28  1  0
 18 20  2  0
 18 27  1  0
 19 22  2  0
 19 23  1  0
M  END
>  <Formula>  (626) 
C24H32O4

>  <FW>  (626) 
384.5085

>  <DSSTox_CID>  (626) 
20683

>  <NR-AR>  (626) 
1

>  <NR-ER>  (626) 
0

>  <NR-ER-LBD>  (626) 
0

>  <NR-AhR>  (626) 
0

>  <SR-ARE>  (626) 
1

>  <SR-ATAD5>  (626) 
0

>  <SR-HSE>  (626) 
0

>  <SR-p53>  (626) 
0

$$$$
NCGC00258219-01
     RDKit          2D

 28 31  0  0  1  0  0  0  0  0999 V2000
    5.4043    0.0000    0.0000 C   0  0  0  0  0  0  0  0  0  0  0  0
    4.8176   -0.5578    0.0000 C   0  0  0  0  0  0  0  0  0  0  0  0
    4.0134   -0.3477    0.0000 O   0  0  0  0  0  0  0  0  0  0  0  0
    5.0784   -1.6083    0.0000 C   0  0  0  0  0  0  0  0  0  0  0  0
    5.5565   -2.2748    0.0000 C   0  0  0  0  0  0  0  0  0  0  0  0
    5.0638   -2.9485    0.0000 C   0  0  0  0  0  0  0  0  0  0  0  0
    4.2887   -2.6877    0.0000 C   0  0  0  0  0  0  0  0  0  0  0  0
    3.5643   -3.0934    0.0000 C   0  0  0  0  0  0  0  0  0  0  0  0
    3.5643   -3.9265    0.0000 C   0  0  0  0  0  0  0  0  0  0  0  0
    2.8471   -4.3394    0.0000 C   0  0  0  0  0  0  0  0  0  0  0  0
    2.8471   -5.1652    0.0000 Cl  0  0  0  0  0  0  0  0  0  0  0  0
    2.1371   -3.9265    0.0000 C   0  0  0  0  0  0  0  0  0  0  0  0
    1.4271   -4.3394    0.0000 C   0  0  0  0  0  0  0  0  0  0  0  0
    0.7100   -3.9265    0.0000 C   0  0  0  0  0  0  0  0  0  0  0  0
    0.0000   -4.3394    0.0000 O   0  0  0  0  0  0  0  0  0  0  0  0
    0.7172   -3.0934    0.0000 C   0  0  0  0  0  0  0  0  0  0  0  0
    1.4271   -2.6877    0.0000 C   0  0  0  0  0  0  0  0  0  0  0  0
    2.1371   -3.1079    0.0000 C   0  0  0  0  0  0  0  0  0  0  0  0
    2.1516   -2.2748    0.0000 C   0  0  0  0  0  0  0  0  0  0  0  0
    2.8543   -2.6877    0.0000 C   0  0  0  0  0  0  0  0  0  0  0  0
    2.8543   -1.8691    0.0000 C   0  0  0  0  0  0  0  0  0  0  0  0
    3.5787   -1.4489    0.0000 C   0  0  0  0  0  0  0  0  0  0  0  0
    4.2887   -1.8691    0.0000 C   0  0  0  0  0  0  0  0  0  0  0  0
    4.2235   -1.0359    0.0000 C   0  0  0  0  0  0  0  0  0  0  0  0
    5.8172   -1.2605    0.0000 O   0  0  0  0  0  0  0  0  0  0  0  0
    6.4983   -1.7387    0.0000 C   0  0  0  0  0  0  0  0  0  0  0  0
    7.2444   -1.3909    0.0000 C   0  0  0  0  0  0  0  0  0  0  0  0
    6.4258   -2.5573    0.0000 O   0  0  0  0  0  0  0  0  0  0  0  0
  1  2  1  0
  2  3  2  0
  4  2  1  0
  4  5  1  0
  4 23  1  0
  4 25  1  6
  5  6  1  0
  7  6  1  1
  7  8  1  0
  7 23  1  0
  8  9  1  6
  8 20  1  0
  9 10  2  0
 10 11  1  0
 10 12  1  0
 12 13  2  0
 12 18  1  0
 13 14  1  0
 14 15  2  0
 14 16  1  0
 16 17  1  0
 17 18  1  0
 18 19  1  1
 18 20  1  0
 20 21  1  1
 21 22  1  0
 22 23  1  0
 23 24  1  1
 25 26  1  0
 26 27  1  0
 26 28  2  0
M  END
>  <Formula>  (627) 
C23H29ClO4

>  <FW>  (627) 
404.9270

>  <DSSTox_CID>  (627) 
274

>  <NR-AR>  (627) 
1

>  <NR-AR-LBD>  (627) 
1

>  <NR-ER-LBD>  (627) 
0

>  <NR-PPAR-gamma>  (627) 
0

>  <NR-AhR>  (627) 
0

>  <SR-ARE>  (627) 
1

>  <SR-ATAD5>  (627) 
0

>  <SR-HSE>  (627) 
0

$$$$
NCGC00255185-01
     RDKit          2D

 34 37  0  0  1  0  0  0  0  0999 V2000
    4.3101   -3.1478    0.0000 C   0  0  0  0  0  0  0  0  0  0  0  0
    2.8815   -3.9549    0.0000 C   0  0  0  0  0  0  0  0  0  0  0  0
    2.1631   -4.3666    0.0000 C   0  0  0  0  0  0  0  0  0  0  0  0
    4.3101   -3.9549    0.0000 C   0  0  0  0  0  0  0  0  0  0  0  0
    3.5917   -4.3666    0.0000 C   0  0  0  0  0  0  0  0  0  0  0  0
    5.0849   -2.8895    0.0000 C   0  0  0  0  0  0  0  0  0  0  0  0
    2.1631   -5.2060    0.0000 C   0  0  0  0  0  0  0  0  0  0  0  0
    2.8815   -3.1478    0.0000 C   0  0  0  0  0  0  0  0  0  0  0  0
    3.5917   -2.7281    0.0000 C   0  0  0  0  0  0  0  0  0  0  0  0
    5.5853   -3.5513    0.0000 C   0  0  0  0  0  0  0  0  0  0  0  0
    1.4690   -3.9549    0.0000 C   0  0  0  0  0  0  0  0  0  0  0  0
    5.0930   -4.2132    0.0000 C   0  0  0  0  0  0  0  0  0  0  0  0
    1.4690   -5.6257    0.0000 C   0  0  0  0  0  0  0  0  0  0  0  0
    5.0849   -2.0421    0.0000 C   0  0  0  0  0  0  0  0  0  0  0  0
    3.5917   -5.2060    0.0000 C   0  0  0  0  0  0  0  0  0  0  0  0
    0.7426   -4.3666    0.0000 C   0  0  0  0  0  0  0  0  0  0  0  0
    0.7426   -5.2060    0.0000 C   0  0  0  0  0  0  0  0  0  0  0  0
    2.8815   -5.6257    0.0000 C   0  0  0  0  0  0  0  0  0  0  0  0
    2.8653   -4.6733    0.0000 F   0  0  0  0  0  0  0  0  0  0  0  0
    4.3746   -1.6384    0.0000 O   0  0  0  0  0  0  0  0  0  0  0  0
    0.0000   -5.6338    0.0000 O   0  0  0  0  0  0  0  0  0  0  0  0
    5.9324   -2.8895    0.0000 O   0  0  0  0  0  0  0  0  0  0  0  0
    4.3101   -2.3003    0.0000 C   0  0  0  0  0  0  0  0  0  0  0  0
    2.1550   -2.7200    0.0000 O   0  0  0  0  0  0  0  0  0  0  0  0
    2.1631   -3.5513    0.0000 C   0  0  0  0  0  0  0  0  0  0  0  0
    6.4086   -3.5433    0.0000 C   0  0  0  0  0  0  0  0  0  0  0  0
    5.7871   -1.6384    0.0000 C   0  0  0  0  0  0  0  0  0  0  0  0
    5.7791   -0.8071    0.0000 O   0  0  0  0  0  0  0  0  0  0  0  0
    6.6427   -2.4779    0.0000 C   0  0  0  0  0  0  0  0  0  0  0  0
    7.3610   -2.8895    0.0000 O   0  0  0  0  0  0  0  0  0  0  0  0
    6.6427   -1.6465    0.0000 C   0  0  0  0  0  0  0  0  0  0  0  0
    7.3610   -1.2430    0.0000 C   0  0  0  0  0  0  0  0  0  0  0  0
    7.3610   -0.4278    0.0000 C   0  0  0  0  0  0  0  0  0  0  0  0
    8.0713    0.0000    0.0000 C   0  0  0  0  0  0  0  0  0  0  0  0
  1  4  1  0
  1  6  1  0
  1  9  1  0
  1 23  1  1
  2  8  1  0
  2  3  1  0
  2 19  1  6
  2  5  1  0
  3  7  1  0
  3 11  1  0
  3 25  1  1
  4  5  1  0
  4 12  1  1
  5 15  1  6
  6 10  1  0
  6 14  1  0
  6 22  1  6
  7 13  2  0
  7 18  1  0
  8  9  1  0
  8 24  1  1
 10 26  1  1
 10 12  1  0
 11 16  2  0
 13 17  1  0
 14 20  2  0
 14 27  1  0
 15 18  1  0
 16 17  1  0
 17 21  2  0
 22 29  1  0
 27 28  1  0
 29 30  2  0
 29 31  1  0
 31 32  1  0
 32 33  1  0
 33 34  1  0
M  END
>  <Formula>  (628) 
C27H37FO6

>  <FW>  (628) 
476.5775

>  <DSSTox_CID>  (628) 
2673

>  <NR-AR>  (628) 
1

>  <NR-AR-LBD>  (628) 
1

>  <NR-ER-LBD>  (628) 
0

>  <SR-ATAD5>  (628) 
0

>  <SR-HSE>  (628) 
0

>  <SR-MMP>  (628) 
1

>  <SR-p53>  (628) 
0

$$$$
NCGC00256442-01
     RDKit          2D

 29 33  0  0  1  0  0  0  0  0999 V2000
    2.1521   -2.9413    0.0000 C   0  0  0  0  0  0  0  0  0  0  0  0
    2.1521   -3.7735    0.0000 C   0  0  0  0  0  0  0  0  0  0  0  0
    1.4563   -2.5324    0.0000 C   0  0  0  0  0  0  0  0  0  0  0  0
    0.7174   -2.9628    0.0000 C   0  0  0  0  0  0  0  0  0  0  0  0
    4.2900   -1.7074    0.0000 C   0  0  0  0  0  0  0  0  0  0  0  0
    2.8767   -2.5324    0.0000 C   0  0  0  0  0  0  0  0  0  0  0  0
    3.5798   -2.9628    0.0000 C   0  0  0  0  0  0  0  0  0  0  0  0
    0.7174   -2.1379    0.0000 C   0  0  0  0  0  0  0  0  0  0  0  0
    2.8767   -4.1895    0.0000 C   0  0  0  0  0  0  0  0  0  0  0  0
    1.4563   -4.1895    0.0000 C   0  0  0  0  0  0  0  0  0  0  0  0
    5.0576   -1.4491    0.0000 C   0  0  0  0  0  0  0  0  0  0  0  0
    3.5798   -3.7950    0.0000 C   0  0  0  0  0  0  0  0  0  0  0  0
    4.2900   -2.5324    0.0000 C   0  0  0  0  0  0  0  0  0  0  0  0
    0.7174   -3.7735    0.0000 C   0  0  0  0  0  0  0  0  0  0  0  0
    3.5654   -1.3200    0.0000 C   0  0  0  0  0  0  0  0  0  0  0  0
    2.8767   -1.7074    0.0000 C   0  0  0  0  0  0  0  0  0  0  0  0
    5.5454   -2.1379    0.0000 C   0  0  0  0  0  0  0  0  0  0  0  0
    5.0576   -2.7906    0.0000 C   0  0  0  0  0  0  0  0  0  0  0  0
    5.3374   -0.7389    0.0000 C   0  0  0  0  0  0  0  0  0  0  0  0
    0.0000   -4.2828    0.0000 O   0  0  0  0  0  0  0  0  0  0  0  0
    4.9069    0.0000    0.0000 O   0  0  0  0  0  0  0  0  0  0  0  0
    2.8767   -5.0289    0.0000 Cl  0  0  0  0  0  0  0  0  0  0  0  0
    5.9400   -1.4491    0.0000 O   0  0  0  0  0  0  0  0  0  0  0  0
    2.1665   -2.0876    0.0000 C   0  0  0  0  0  0  0  0  0  0  0  0
    4.2900   -0.9613    0.0000 C   0  0  0  0  0  0  0  0  0  0  0  0
    6.1767   -0.7389    0.0000 C   0  0  0  0  0  0  0  0  0  0  0  0
    6.3489   -2.1665    0.0000 C   0  0  0  0  0  0  0  0  0  0  0  0
    7.1739   -2.1665    0.0000 C   0  0  0  0  0  0  0  0  0  0  0  0
    5.9400   -2.8839    0.0000 O   0  0  0  0  0  0  0  0  0  0  0  0
  1  2  1  0
  1  3  1  0
  1  6  1  0
  1 24  1  1
  2  9  1  0
  2 10  2  0
  3  4  1  0
  3  8  1  6
  4 14  1  0
  4  8  1  6
  5 15  1  0
  5 11  1  0
  5 25  1  1
  5 13  1  0
  6  7  1  0
  6 16  1  1
  7 12  1  6
  7 13  1  0
  9 22  1  0
  9 12  2  0
 10 14  1  0
 11 19  1  0
 11 23  1  6
 11 17  1  0
 13 18  1  1
 14 20  2  0
 15 16  1  0
 17 18  1  0
 19 21  2  0
 19 26  1  0
 23 27  1  0
 27 28  1  0
 27 29  2  0
M  END
>  <Formula>  (629) 
C24H29ClO4

>  <FW>  (629) 
416.9377

>  <DSSTox_CID>  (629) 
366

>  <NR-Aromatase>  (629) 
0

>  <NR-AR>  (629) 
1

>  <NR-AR-LBD>  (629) 
1

>  <NR-ER>  (629) 
0

>  <NR-ER-LBD>  (629) 
0

>  <SR-ARE>  (629) 
1

>  <SR-ATAD5>  (629) 
0

>  <SR-HSE>  (629) 
0

>  <SR-p53>  (629) 
0

$$$$
NCGC00183100-01
     RDKit          2D

 34 37  0  0  1  0  0  0  0  0999 V2000
    2.1763   -3.5695    0.0000 C   0  0  0  0  0  0  0  0  0  0  0  0
    2.8780   -3.1627    0.0000 C   0  0  0  0  0  0  0  0  0  0  0  0
    4.3220   -2.3187    0.0000 C   0  0  0  0  0  0  0  0  0  0  0  0
    2.1763   -4.4237    0.0000 C   0  0  0  0  0  0  0  0  0  0  0  0
    4.3220   -3.1729    0.0000 C   0  0  0  0  0  0  0  0  0  0  0  0
    3.6102   -3.5899    0.0000 C   0  0  0  0  0  0  0  0  0  0  0  0
    2.8780   -2.3187    0.0000 C   0  0  0  0  0  0  0  0  0  0  0  0
    1.4542   -3.1627    0.0000 C   0  0  0  0  0  0  0  0  0  0  0  0
    5.1559   -2.0848    0.0000 C   0  0  0  0  0  0  0  0  0  0  0  0
    3.6102   -1.9118    0.0000 C   0  0  0  0  0  0  0  0  0  0  0  0
    5.1153   -3.4170    0.0000 C   0  0  0  0  0  0  0  0  0  0  0  0
    5.6034   -2.7559    0.0000 C   0  0  0  0  0  0  0  0  0  0  0  0
    3.6102   -4.4237    0.0000 C   0  0  0  0  0  0  0  0  0  0  0  0
    2.8780   -4.8102    0.0000 C   0  0  0  0  0  0  0  0  0  0  0  0
    1.4542   -4.8102    0.0000 C   0  0  0  0  0  0  0  0  0  0  0  0
    0.7322   -3.5899    0.0000 C   0  0  0  0  0  0  0  0  0  0  0  0
    0.7322   -4.4135    0.0000 C   0  0  0  0  0  0  0  0  0  0  0  0
    5.1559   -1.2407    0.0000 C   0  0  0  0  0  0  0  0  0  0  0  0
    2.8881   -3.9966    0.0000 F   0  0  0  0  0  0  0  0  0  0  0  0
    4.4441   -0.8441    0.0000 O   0  0  0  0  0  0  0  0  0  0  0  0
    0.0000   -4.8102    0.0000 O   0  0  0  0  0  0  0  0  0  0  0  0
    2.1763   -2.7458    0.0000 C   0  0  0  0  0  0  0  0  0  0  0  0
    4.3220   -1.4949    0.0000 C   0  0  0  0  0  0  0  0  0  0  0  0
    2.1763   -1.9118    0.0000 O   0  0  0  0  0  0  0  0  0  0  0  0
    2.8780   -5.6644    0.0000 F   0  0  0  0  0  0  0  0  0  0  0  0
    6.4271   -2.7559    0.0000 C   0  0  0  0  0  0  0  0  0  0  0  0
    6.5797   -1.2509    0.0000 O   0  0  0  0  0  0  0  0  0  0  0  0
    5.8678   -0.8339    0.0000 C   0  0  0  0  0  0  0  0  0  0  0  0
    7.3017   -0.8339    0.0000 C   0  0  0  0  0  0  0  0  0  0  0  0
    7.3017    0.0000    0.0000 O   0  0  0  0  0  0  0  0  0  0  0  0
    8.0237   -1.2509    0.0000 C   0  0  0  0  0  0  0  0  0  0  0  0
    8.7356   -0.8339    0.0000 C   0  0  0  0  0  0  0  0  0  0  0  0
    9.4576   -1.2509    0.0000 C   0  0  0  0  0  0  0  0  0  0  0  0
   10.1695   -0.8441    0.0000 C   0  0  0  0  0  0  0  0  0  0  0  0
  1  2  1  0
  1  4  1  0
  1  8  1  0
  1 22  1  1
  2  6  1  0
  2  7  1  0
  2 19  1  6
  3 10  1  0
  3  9  1  0
  3 23  1  1
  3  5  1  0
  4 14  1  0
  4 15  2  0
  5  6  1  0
  5 11  1  1
  6 13  1  6
  7 10  1  0
  7 24  1  1
  8 16  2  0
  9 18  1  1
  9 12  1  0
 11 12  1  0
 12 26  1  6
 13 14  1  0
 14 25  1  6
 15 17  1  0
 16 17  1  0
 17 21  2  0
 18 20  2  0
 18 28  1  0
 27 28  1  0
 27 29  1  0
 29 30  2  0
 29 31  1  0
 31 32  1  0
 32 33  1  0
 33 34  1  0
M  END
>  <Formula>  (630) 
C27H36F2O5

>  <FW>  (630) 
478.5685

>  <DSSTox_CID>  (630) 
28524

>  <NR-AR>  (630) 
1

>  <NR-AR-LBD>  (630) 
1

>  <NR-ER>  (630) 
0

>  <NR-ER-LBD>  (630) 
0

>  <NR-PPAR-gamma>  (630) 
0

>  <SR-ATAD5>  (630) 
0

>  <SR-MMP>  (630) 
0

>  <SR-p53>  (630) 
0

$$$$
NCGC00185763-01
     RDKit          2D

 35 37  0  0  1  0  0  0  0  0999 V2000
    2.1706   -3.5388    0.0000 C   0  0  0  0  0  0  0  0  0  0  0  0
    4.3104   -2.3147    0.0000 C   0  0  0  0  0  0  0  0  0  0  0  0
    2.1706   -4.3721    0.0000 C   0  0  0  0  0  0  0  0  0  0  0  0
    5.1025   -2.0575    0.0000 C   0  0  0  0  0  0  0  0  0  0  0  0
    2.8804   -3.1376    0.0000 C   0  0  0  0  0  0  0  0  0  0  0  0
    3.5903   -3.5594    0.0000 C   0  0  0  0  0  0  0  0  0  0  0  0
    4.3104   -3.1479    0.0000 C   0  0  0  0  0  0  0  0  0  0  0  0
    1.4505   -3.1376    0.0000 C   0  0  0  0  0  0  0  0  0  0  0  0
    3.5903   -1.9134    0.0000 C   0  0  0  0  0  0  0  0  0  0  0  0
    2.8804   -2.3147    0.0000 C   0  0  0  0  0  0  0  0  0  0  0  0
    3.5903   -4.3618    0.0000 C   0  0  0  0  0  0  0  0  0  0  0  0
    1.4505   -4.7836    0.0000 C   0  0  0  0  0  0  0  0  0  0  0  0
    2.8804   -4.7836    0.0000 C   0  0  0  0  0  0  0  0  0  0  0  0
    5.1025   -1.2139    0.0000 C   0  0  0  0  0  0  0  0  0  0  0  0
    5.5552   -2.7364    0.0000 C   0  0  0  0  0  0  0  0  0  0  0  0
    5.0922   -3.3948    0.0000 C   0  0  0  0  0  0  0  0  0  0  0  0
    0.7201   -3.5594    0.0000 C   0  0  0  0  0  0  0  0  0  0  0  0
    0.7201   -4.3618    0.0000 C   0  0  0  0  0  0  0  0  0  0  0  0
    9.5054   -1.3991    0.0000 C   0  0  0  0  0  0  0  0  0  0  0  0
    7.2937   -0.8744    0.0000 C   0  0  0  0  0  0  0  0  0  0  0  0
    5.8226   -0.8333    0.0000 C   0  0  0  0  0  0  0  0  0  0  0  0
    9.5054   -2.2632    0.0000 O   0  0  0  0  0  0  0  0  0  0  0  0
    4.3927   -0.7921    0.0000 O   0  0  0  0  0  0  0  0  0  0  0  0
    6.5221   -1.2756    0.0000 O   0  0  0  0  0  0  0  0  0  0  0  0
   10.2873   -0.9979    0.0000 O   0  0  0  0  0  0  0  0  0  0  0  0
    7.3040    0.0000    0.0000 O   0  0  0  0  0  0  0  0  0  0  0  0
    0.0000   -4.7630    0.0000 O   0  0  0  0  0  0  0  0  0  0  0  0
    5.9255   -2.0677    0.0000 O   0  0  0  0  0  0  0  0  0  0  0  0
    2.1706   -2.7261    0.0000 C   0  0  0  0  0  0  0  0  0  0  0  0
    4.3104   -1.4916    0.0000 C   0  0  0  0  0  0  0  0  0  0  0  0
    2.1500   -1.9032    0.0000 O   0  0  0  0  0  0  0  0  0  0  0  0
    8.7956   -0.9362    0.0000 C   0  0  0  0  0  0  0  0  0  0  0  0
    8.0241   -1.3373    0.0000 C   0  0  0  0  0  0  0  0  0  0  0  0
    2.8804   -5.6066    0.0000 C   0  0  0  0  0  0  0  0  0  0  0  0
    8.4973   -2.5410    0.0000 Na  0  0  0  0  0 15  0  0  0  0  0  0
  1  3  1  0
  1  5  1  0
  1  8  1  0
  1 29  1  1
  2  9  1  0
  2  4  1  0
  2 30  1  1
  2  7  1  0
  3 12  2  0
  3 13  1  0
  4 14  1  0
  4 28  1  6
  4 15  1  0
  5  6  1  0
  5 10  1  1
  6  7  1  0
  6 11  1  6
  7 16  1  1
  8 17  2  0
  9 10  1  0
 10 31  1  1
 11 13  1  0
 12 18  1  0
 13 34  1  6
 14 21  1  0
 14 23  2  0
 15 16  1  0
 17 18  1  0
 18 27  2  0
 19 32  1  0
 19 22  1  0
 19 25  2  0
 20 24  1  0
 20 26  2  0
 20 33  1  0
 21 24  1  0
 32 33  1  0
M  CHG  2  22  -1  35   1
M  END
>  <Formula>  (631) 
C26H33NaO8

>  <FW>  (631) 
496.5252 (473.5360+22.9892)

>  <DSSTox_CID>  (631) 
3303

>  <NR-AR>  (631) 
1

>  <NR-AR-LBD>  (631) 
1

>  <NR-ER-LBD>  (631) 
0

>  <NR-PPAR-gamma>  (631) 
0

>  <NR-AhR>  (631) 
0

>  <SR-ATAD5>  (631) 
0

>  <SR-MMP>  (631) 
0

>  <SR-p53>  (631) 
0

$$$$
NCGC00185748-01
     RDKit          2D

 31 34  0  0  1  0  0  0  0  0999 V2000
    2.1430   -3.5637    0.0000 C   0  0  0  0  0  0  0  0  0  0  0  0
    4.2939   -2.3414    0.0000 C   0  0  0  0  0  0  0  0  0  0  0  0
    2.1430   -4.3812    0.0000 C   0  0  0  0  0  0  0  0  0  0  0  0
    4.2939   -3.1590    0.0000 C   0  0  0  0  0  0  0  0  0  0  0  0
    5.0797   -2.0636    0.0000 C   0  0  0  0  0  0  0  0  0  0  0  0
    3.5717   -3.5637    0.0000 C   0  0  0  0  0  0  0  0  0  0  0  0
    2.8573   -3.1590    0.0000 C   0  0  0  0  0  0  0  0  0  0  0  0
    1.4524   -3.1590    0.0000 C   0  0  0  0  0  0  0  0  0  0  0  0
    3.5717   -1.9208    0.0000 C   0  0  0  0  0  0  0  0  0  0  0  0
    2.8573   -2.3414    0.0000 C   0  0  0  0  0  0  0  0  0  0  0  0
    5.5559   -2.7383    0.0000 C   0  0  0  0  0  0  0  0  0  0  0  0
    5.0638   -3.3970    0.0000 C   0  0  0  0  0  0  0  0  0  0  0  0
    3.5717   -4.3812    0.0000 C   0  0  0  0  0  0  0  0  0  0  0  0
    2.8573   -4.7940    0.0000 C   0  0  0  0  0  0  0  0  0  0  0  0
    1.4524   -4.7940    0.0000 C   0  0  0  0  0  0  0  0  0  0  0  0
    5.0797   -1.2461    0.0000 C   0  0  0  0  0  0  0  0  0  0  0  0
    0.7302   -3.5637    0.0000 C   0  0  0  0  0  0  0  0  0  0  0  0
    0.7302   -4.3812    0.0000 C   0  0  0  0  0  0  0  0  0  0  0  0
    4.3574   -0.8255    0.0000 O   0  0  0  0  0  0  0  0  0  0  0  0
    0.0000   -4.8098    0.0000 O   0  0  0  0  0  0  0  0  0  0  0  0
    5.5639   -1.5556    0.0000 O   0  0  0  0  0  0  0  0  0  0  0  0
    2.1430   -2.7383    0.0000 C   0  0  0  0  0  0  0  0  0  0  0  0
    4.2939   -1.5001    0.0000 C   0  0  0  0  0  0  0  0  0  0  0  0
    2.8573   -5.4765    0.0000 F   0  0  0  0  0  0  0  0  0  0  0  0
    2.1271   -1.9049    0.0000 O   0  0  0  0  0  0  0  0  0  0  0  0
    5.7940   -0.8255    0.0000 C   0  0  0  0  0  0  0  0  0  0  0  0
    6.2623   -2.7383    0.0000 C   0  0  0  0  0  0  0  0  0  0  0  0
    6.5084   -1.2461    0.0000 O   0  0  0  0  0  0  0  0  0  0  0  0
    7.2227   -0.8255    0.0000 C   0  0  0  0  0  0  0  0  0  0  0  0
    7.9370   -1.2461    0.0000 O   0  0  0  0  0  0  0  0  0  0  0  0
    7.2227    0.0000    0.0000 C   0  0  0  0  0  0  0  0  0  0  0  0
  1  3  1  0
  1  7  1  0
  1  8  1  0
  1 22  1  1
  2  9  1  0
  2  5  1  0
  2 23  1  1
  2  4  1  0
  3 14  1  0
  3 15  2  0
  4  6  1  0
  4 12  1  1
  5 16  1  0
  5 21  1  6
  5 11  1  0
  6  7  1  0
  6 13  1  6
  7 10  1  1
  8 17  2  0
  9 10  1  0
 10 25  1  1
 11 12  1  0
 11 27  1  6
 13 14  1  0
 14 24  1  6
 15 18  1  0
 16 19  2  0
 16 26  1  0
 17 18  1  0
 18 20  2  0
 26 28  1  0
 28 29  1  0
 29 30  2  0
 29 31  1  0
M  END
>  <Formula>  (632) 
C24H31FO6

>  <FW>  (632) 
434.4977

>  <DSSTox_CID>  (632) 
3422

>  <NR-AR>  (632) 
1

>  <NR-AR-LBD>  (632) 
1

>  <NR-ER>  (632) 
0

>  <NR-ER-LBD>  (632) 
0

>  <NR-PPAR-gamma>  (632) 
0

>  <SR-ATAD5>  (632) 
0

>  <SR-MMP>  (632) 
0

>  <SR-p53>  (632) 
0

$$$$
NCGC00182066-02
     RDKit          2D

 31 34  0  0  1  0  0  0  0  0999 V2000
    4.3094   -2.4456    0.0000 C   0  0  0  0  0  0  0  0  0  0  0  0
    2.8771   -3.2712    0.0000 C   0  0  0  0  0  0  0  0  0  0  0  0
    2.1704   -3.6903    0.0000 C   0  0  0  0  0  0  0  0  0  0  0  0
    4.3094   -3.2712    0.0000 C   0  0  0  0  0  0  0  0  0  0  0  0
    5.0976   -2.1954    0.0000 C   0  0  0  0  0  0  0  0  0  0  0  0
    3.5652   -3.6903    0.0000 C   0  0  0  0  0  0  0  0  0  0  0  0
    5.5604   -2.8584    0.0000 C   0  0  0  0  0  0  0  0  0  0  0  0
    2.1704   -4.5033    0.0000 C   0  0  0  0  0  0  0  0  0  0  0  0
    2.8771   -2.4456    0.0000 C   0  0  0  0  0  0  0  0  0  0  0  0
    3.5652   -2.0265    0.0000 C   0  0  0  0  0  0  0  0  0  0  0  0
    5.0976   -3.5151    0.0000 C   0  0  0  0  0  0  0  0  0  0  0  0
    1.4510   -3.2712    0.0000 C   0  0  0  0  0  0  0  0  0  0  0  0
    5.0976   -1.3260    0.0000 C   0  0  0  0  0  0  0  0  0  0  0  0
    1.4510   -4.9224    0.0000 C   0  0  0  0  0  0  0  0  0  0  0  0
    3.5652   -4.5033    0.0000 C   0  0  0  0  0  0  0  0  0  0  0  0
    0.7381   -3.6903    0.0000 C   0  0  0  0  0  0  0  0  0  0  0  0
    0.7381   -4.5033    0.0000 C   0  0  0  0  0  0  0  0  0  0  0  0
    2.8771   -4.9224    0.0000 C   0  0  0  0  0  0  0  0  0  0  0  0
    2.8271   -0.7881    0.0000 C   0  0  0  0  0  0  0  0  0  0  0  0
    6.2547   -2.8584    0.0000 C   0  0  0  0  0  0  0  0  0  0  0  0
    2.8771   -4.1031    0.0000 F   0  0  0  0  0  0  0  0  0  0  0  0
    4.3532   -0.8882    0.0000 C   0  0  0  0  0  0  0  0  0  0  0  0
    5.8043   -0.8882    0.0000 O   0  0  0  0  0  0  0  0  0  0  0  0
    3.5652   -1.2384    0.0000 O   0  0  0  0  0  0  0  0  0  0  0  0
    2.0890   -1.2071    0.0000 O   0  0  0  0  0  0  0  0  0  0  0  0
    0.0000   -4.9224    0.0000 O   0  0  0  0  0  0  0  0  0  0  0  0
    6.0232   -2.1954    0.0000 O   0  0  0  0  0  0  0  0  0  0  0  0
    4.3094   -1.6262    0.0000 C   0  0  0  0  0  0  0  0  0  0  0  0
    2.1704   -2.0265    0.0000 O   0  0  0  0  0  0  0  0  0  0  0  0
    2.1704   -2.8584    0.0000 C   0  0  0  0  0  0  0  0  0  0  0  0
    2.8271    0.0000    0.0000 C   0  0  0  0  0  0  0  0  0  0  0  0
  1  4  1  0
  1  5  1  0
  1 10  1  0
  1 28  1  1
  2  9  1  0
  2  3  1  0
  2 21  1  6
  2  6  1  0
  3  8  1  0
  3 12  1  0
  3 30  1  1
  4  6  1  0
  4 11  1  0
  5  7  1  0
  5 13  1  0
  5 27  1  6
  6 15  1  0
  7 20  2  0
  7 11  1  0
  8 14  2  0
  8 18  1  0
  9 10  1  0
  9 29  1  1
 12 16  2  0
 13 22  1  0
 13 23  2  0
 14 17  1  0
 15 18  1  0
 16 17  1  0
 17 26  2  0
 19 24  1  0
 19 25  2  0
 19 31  1  0
 22 24  1  0
M  END
>  <Formula>  (633) 
C24H29FO6

>  <FW>  (633) 
432.4819

>  <DSSTox_CID>  (633) 
28645

>  <NR-AR>  (633) 
1

>  <NR-AR-LBD>  (633) 
1

>  <NR-ER-LBD>  (633) 
0

>  <NR-PPAR-gamma>  (633) 
0

>  <NR-AhR>  (633) 
0

>  <SR-ATAD5>  (633) 
0

>  <SR-MMP>  (633) 
0

>  <SR-p53>  (633) 
0

$$$$
NCGC00022408-03
     RDKit          2D

 35 38  0  0  1  0  0  0  0  0999 V2000
    2.1780   -3.2753    0.0000 C   0  0  0  0  0  0  0  0  0  0  0  0
    4.2900   -2.0708    0.0000 C   0  0  0  0  0  0  0  0  0  0  0  0
    2.8628   -2.8958    0.0000 C   0  0  0  0  0  0  0  0  0  0  0  0
    2.1780   -4.1250    0.0000 C   0  0  0  0  0  0  0  0  0  0  0  0
    4.2900   -2.8958    0.0000 C   0  0  0  0  0  0  0  0  0  0  0  0
    3.5805   -3.2753    0.0000 C   0  0  0  0  0  0  0  0  0  0  0  0
    5.0903   -1.7903    0.0000 C   0  0  0  0  0  0  0  0  0  0  0  0
    2.8628   -2.0708    0.0000 C   0  0  0  0  0  0  0  0  0  0  0  0
    1.4603   -2.8958    0.0000 C   0  0  0  0  0  0  0  0  0  0  0  0
    3.5805   -1.6500    0.0000 C   0  0  0  0  0  0  0  0  0  0  0  0
    5.5522   -2.4750    0.0000 C   0  0  0  0  0  0  0  0  0  0  0  0
    5.0573   -3.1433    0.0000 C   0  0  0  0  0  0  0  0  0  0  0  0
    3.5805   -4.1250    0.0000 C   0  0  0  0  0  0  0  0  0  0  0  0
    2.8628   -4.5458    0.0000 C   0  0  0  0  0  0  0  0  0  0  0  0
    1.4603   -4.5458    0.0000 C   0  0  0  0  0  0  0  0  0  0  0  0
    5.0903   -0.9653    0.0000 C   0  0  0  0  0  0  0  0  0  0  0  0
    7.0950   -0.6683    0.0000 C   0  0  0  0  0  0  0  0  0  0  0  0
    0.7177   -3.2753    0.0000 C   0  0  0  0  0  0  0  0  0  0  0  0
    0.7177   -4.1250    0.0000 C   0  0  0  0  0  0  0  0  0  0  0  0
    7.6478   -1.0230    0.0000 C   0  0  0  0  0  0  0  0  0  0  0  0
    6.5175   -0.9983    0.0000 O   0  0  0  0  0  0  0  0  0  0  0  0
    5.8080   -0.5775    0.0000 C   0  0  0  0  0  0  0  0  0  0  0  0
    2.8298   -3.5805    0.0000 F   0  0  0  0  0  0  0  0  0  0  0  0
    7.0950    0.0000    0.0000 O   0  0  0  0  0  0  0  0  0  0  0  0
    4.3725   -0.5610    0.0000 O   0  0  0  0  0  0  0  0  0  0  0  0
    0.0000   -4.5623    0.0000 O   0  0  0  0  0  0  0  0  0  0  0  0
    5.9153   -1.7903    0.0000 O   0  0  0  0  0  0  0  0  0  0  0  0
    2.1780   -2.4750    0.0000 C   0  0  0  0  0  0  0  0  0  0  0  0
    4.2900   -1.2128    0.0000 C   0  0  0  0  0  0  0  0  0  0  0  0
    2.1450   -1.6500    0.0000 O   0  0  0  0  0  0  0  0  0  0  0  0
    2.8298   -5.2306    0.0000 F   0  0  0  0  0  0  0  0  0  0  0  0
    6.3772   -2.4503    0.0000 C   0  0  0  0  0  0  0  0  0  0  0  0
    7.2848   -1.6253    0.0000 C   0  0  0  0  0  0  0  0  0  0  0  0
    8.0273   -0.4455    0.0000 C   0  0  0  0  0  0  0  0  0  0  0  0
    8.2501   -1.4025    0.0000 C   0  0  0  0  0  0  0  0  0  0  0  0
  1  3  1  0
  1  4  1  0
  1  9  1  0
  1 28  1  0
  2 10  1  0
  2  7  1  0
  2 29  1  0
  2  5  1  0
  3  6  1  0
  3  8  1  0
  3 23  1  6
  4 14  1  0
  4 15  2  0
  5  6  1  0
  5 12  1  1
  6 13  1  0
  7 16  1  0
  7 27  1  6
  7 11  1  0
  8 10  1  0
  8 30  1  1
  9 18  2  0
 11 12  1  0
 11 32  1  6
 13 14  1  0
 14 31  1  6
 15 19  1  0
 16 22  1  0
 16 25  2  0
 17 21  1  0
 17 20  1  0
 17 24  2  0
 18 19  1  0
 19 26  2  0
 20 33  1  0
 20 34  1  0
 20 35  1  0
 21 22  1  0
M  END
>  <Formula>  (634) 
C27H36F2O6

>  <FW>  (634) 
494.5679

>  <DSSTox_CID>  (634) 
28931

>  <NR-AR>  (634) 
1

>  <NR-AR-LBD>  (634) 
1

>  <NR-ER>  (634) 
0

>  <NR-ER-LBD>  (634) 
0

>  <NR-PPAR-gamma>  (634) 
0

>  <SR-ATAD5>  (634) 
0

>  <SR-MMP>  (634) 
1

>  <SR-p53>  (634) 
0

$$$$
NCGC00182067-02
     RDKit          2D

 27 30  0  0  1  0  0  0  0  0999 V2000
    2.1799   -2.8775    0.0000 C   0  0  0  0  0  0  0  0  0  0  0  0
    4.3128   -1.6366    0.0000 C   0  0  0  0  0  0  0  0  0  0  0  0
    2.1799   -3.7025    0.0000 C   0  0  0  0  0  0  0  0  0  0  0  0
    5.1110   -1.3817    0.0000 C   0  0  0  0  0  0  0  0  0  0  0  0
    2.8976   -2.4750    0.0000 C   0  0  0  0  0  0  0  0  0  0  0  0
    3.6085   -2.8775    0.0000 C   0  0  0  0  0  0  0  0  0  0  0  0
    4.3128   -2.4750    0.0000 C   0  0  0  0  0  0  0  0  0  0  0  0
    1.4555   -2.4750    0.0000 C   0  0  0  0  0  0  0  0  0  0  0  0
    3.6085   -1.2207    0.0000 C   0  0  0  0  0  0  0  0  0  0  0  0
    2.8976   -1.6366    0.0000 C   0  0  0  0  0  0  0  0  0  0  0  0
    3.6085   -3.7025    0.0000 C   0  0  0  0  0  0  0  0  0  0  0  0
    2.8976   -4.1116    0.0000 C   0  0  0  0  0  0  0  0  0  0  0  0
    1.4555   -4.1116    0.0000 C   0  0  0  0  0  0  0  0  0  0  0  0
    5.3391   -0.5969    0.0000 C   0  0  0  0  0  0  0  0  0  0  0  0
    5.5872   -2.0457    0.0000 C   0  0  0  0  0  0  0  0  0  0  0  0
    5.1110   -2.7299    0.0000 C   0  0  0  0  0  0  0  0  0  0  0  0
    0.7445   -2.8775    0.0000 C   0  0  0  0  0  0  0  0  0  0  0  0
    0.7445   -3.7025    0.0000 C   0  0  0  0  0  0  0  0  0  0  0  0
    4.7757    0.0000    0.0000 O   0  0  0  0  0  0  0  0  0  0  0  0
    0.0000   -4.1116    0.0000 O   0  0  0  0  0  0  0  0  0  0  0  0
    5.9427   -1.4421    0.0000 O   0  0  0  0  0  0  0  0  0  0  0  0
    2.1799   -2.0457    0.0000 C   0  0  0  0  0  0  0  0  0  0  0  0
    4.3128   -0.7982    0.0000 C   0  0  0  0  0  0  0  0  0  0  0  0
    2.8976   -4.9433    0.0000 F   0  0  0  0  0  0  0  0  0  0  0  0
    2.1799   -1.2140    0.0000 O   0  0  0  0  0  0  0  0  0  0  0  0
    6.1439   -0.3890    0.0000 C   0  0  0  0  0  0  0  0  0  0  0  0
    6.7074   -0.9927    0.0000 O   0  0  0  0  0  0  0  0  0  0  0  0
  1  3  1  0
  1  5  1  0
  1  8  1  0
  1 22  1  1
  2  9  1  0
  2  4  1  0
  2 23  1  1
  2  7  1  0
  3 12  1  0
  3 13  2  0
  4 14  1  0
  4 21  1  6
  4 15  1  0
  5  6  1  0
  5 10  1  1
  6  7  1  0
  6 11  1  6
  7 16  1  1
  8 17  2  0
  9 10  1  0
 10 25  1  1
 11 12  1  0
 12 24  1  6
 13 18  1  0
 14 19  2  0
 14 26  1  0
 15 16  1  0
 17 18  1  0
 18 20  2  0
 26 27  1  0
M  END
>  <Formula>  (635) 
C21H27FO5

>  <FW>  (635) 
378.4345

>  <DSSTox_CID>  (635) 
26067

>  <NR-AR>  (635) 
1

>  <NR-AR-LBD>  (635) 
1

>  <NR-ER-LBD>  (635) 
0

>  <NR-PPAR-gamma>  (635) 
0

>  <NR-AhR>  (635) 
0

>  <SR-ATAD5>  (635) 
0

>  <SR-MMP>  (635) 
0

>  <SR-p53>  (635) 
0

$$$$
NCGC00159316-02
     RDKit          2D

 34 37  0  0  1  0  0  0  0  0999 V2000
    4.2948   -3.1366    0.0000 C   0  0  0  0  0  0  0  0  0  0  0  0
    2.8712   -3.9408    0.0000 C   0  0  0  0  0  0  0  0  0  0  0  0
    2.1554   -4.3510    0.0000 C   0  0  0  0  0  0  0  0  0  0  0  0
    4.2948   -3.9408    0.0000 C   0  0  0  0  0  0  0  0  0  0  0  0
    3.5789   -4.3510    0.0000 C   0  0  0  0  0  0  0  0  0  0  0  0
    5.0668   -2.8793    0.0000 C   0  0  0  0  0  0  0  0  0  0  0  0
    2.1554   -5.1875    0.0000 C   0  0  0  0  0  0  0  0  0  0  0  0
    2.8712   -3.1366    0.0000 C   0  0  0  0  0  0  0  0  0  0  0  0
    3.5789   -2.7184    0.0000 C   0  0  0  0  0  0  0  0  0  0  0  0
    5.5654   -3.5387    0.0000 C   0  0  0  0  0  0  0  0  0  0  0  0
    1.4638   -3.9408    0.0000 C   0  0  0  0  0  0  0  0  0  0  0  0
    5.0829   -4.1982    0.0000 C   0  0  0  0  0  0  0  0  0  0  0  0
    1.4638   -5.6057    0.0000 C   0  0  0  0  0  0  0  0  0  0  0  0
    5.0668   -2.0348    0.0000 C   0  0  0  0  0  0  0  0  0  0  0  0
    3.5789   -5.1875    0.0000 C   0  0  0  0  0  0  0  0  0  0  0  0
    0.7319   -4.3510    0.0000 C   0  0  0  0  0  0  0  0  0  0  0  0
    0.7319   -5.1875    0.0000 C   0  0  0  0  0  0  0  0  0  0  0  0
    2.8712   -5.6057    0.0000 C   0  0  0  0  0  0  0  0  0  0  0  0
    2.8551   -4.6566    0.0000 F   0  0  0  0  0  0  0  0  0  0  0  0
    4.3671   -1.6246    0.0000 O   0  0  0  0  0  0  0  0  0  0  0  0
    0.0000   -5.6137    0.0000 O   0  0  0  0  0  0  0  0  0  0  0  0
    5.9113   -2.8793    0.0000 O   0  0  0  0  0  0  0  0  0  0  0  0
    4.2948   -2.2921    0.0000 C   0  0  0  0  0  0  0  0  0  0  0  0
    2.1474   -2.7103    0.0000 O   0  0  0  0  0  0  0  0  0  0  0  0
    2.1554   -3.5387    0.0000 C   0  0  0  0  0  0  0  0  0  0  0  0
    6.3858   -3.5226    0.0000 C   0  0  0  0  0  0  0  0  0  0  0  0
    5.7665   -1.6246    0.0000 C   0  0  0  0  0  0  0  0  0  0  0  0
    5.7585   -0.8043    0.0000 O   0  0  0  0  0  0  0  0  0  0  0  0
    6.6190   -2.4691    0.0000 C   0  0  0  0  0  0  0  0  0  0  0  0
    7.3348   -2.8793    0.0000 O   0  0  0  0  0  0  0  0  0  0  0  0
    6.6190   -1.6407    0.0000 C   0  0  0  0  0  0  0  0  0  0  0  0
    7.3348   -1.2385    0.0000 C   0  0  0  0  0  0  0  0  0  0  0  0
    7.3348   -0.4262    0.0000 C   0  0  0  0  0  0  0  0  0  0  0  0
    8.0426    0.0000    0.0000 C   0  0  0  0  0  0  0  0  0  0  0  0
  1  4  1  0
  1  6  1  0
  1  9  1  0
  1 23  1  1
  2  8  1  0
  2  3  1  0
  2 19  1  6
  2  5  1  0
  3  7  1  0
  3 11  1  0
  3 25  1  1
  4  5  1  0
  4 12  1  1
  5 15  1  6
  6 10  1  0
  6 14  1  0
  6 22  1  6
  7 13  2  0
  7 18  1  0
  8  9  1  0
  8 24  1  1
 10 26  1  6
 10 12  1  0
 11 16  2  0
 13 17  1  0
 14 20  2  0
 14 27  1  0
 15 18  1  0
 16 17  1  0
 17 21  2  0
 22 29  1  0
 27 28  1  0
 29 30  2  0
 29 31  1  0
 31 32  1  0
 32 33  1  0
 33 34  1  0
M  END
>  <Formula>  (636) 
C27H37FO6

>  <FW>  (636) 
476.5775

>  <DSSTox_CID>  (636) 
2904

>  <NR-AR>  (636) 
1

>  <NR-AR-LBD>  (636) 
1

>  <NR-ER>  (636) 
0

>  <NR-ER-LBD>  (636) 
0

>  <NR-PPAR-gamma>  (636) 
0

>  <SR-ATAD5>  (636) 
0

>  <SR-MMP>  (636) 
1

>  <SR-p53>  (636) 
0

$$$$
NCGC00167464-01
     RDKit          2D

 32 33  0  0  1  0  0  0  0  0999 V2000
    4.3092   -3.8713    0.0000 C   0  0  0  0  0  0  0  0  0  0  0  0
    2.1577   -5.1151    0.0000 C   0  0  0  0  0  0  0  0  0  0  0  0
    5.0961   -3.6238    0.0000 C   0  0  0  0  0  0  0  0  0  0  0  0
    3.5984   -5.1151    0.0000 C   0  0  0  0  0  0  0  0  0  0  0  0
    4.3092   -4.7090    0.0000 C   0  0  0  0  0  0  0  0  0  0  0  0
    2.8686   -4.6963    0.0000 C   0  0  0  0  0  0  0  0  0  0  0  0
    2.1577   -5.9402    0.0000 C   0  0  0  0  0  0  0  0  0  0  0  0
    3.5857   -3.4651    0.0000 C   0  0  0  0  0  0  0  0  0  0  0  0
    2.8686   -3.8713    0.0000 C   0  0  0  0  0  0  0  0  0  0  0  0
    1.4470   -6.3464    0.0000 C   0  0  0  0  0  0  0  0  0  0  0  0
    5.0961   -2.7987    0.0000 C   0  0  0  0  0  0  0  0  0  0  0  0
    5.5594   -4.2774    0.0000 C   0  0  0  0  0  0  0  0  0  0  0  0
    5.0961   -4.9438    0.0000 C   0  0  0  0  0  0  0  0  0  0  0  0
    3.5984   -5.9275    0.0000 C   0  0  0  0  0  0  0  0  0  0  0  0
    1.4470   -4.6963    0.0000 C   0  0  0  0  0  0  0  0  0  0  0  0
    2.8686   -6.3464    0.0000 C   0  0  0  0  0  0  0  0  0  0  0  0
    0.7362   -5.9275    0.0000 C   0  0  0  0  0  0  0  0  0  0  0  0
    5.8069   -2.3863    0.0000 O   0  0  0  0  0  0  0  0  0  0  0  0
    0.0000   -6.3273    0.0000 O   0  0  0  0  0  0  0  0  0  0  0  0
    5.9211   -3.6555    0.0000 O   0  0  0  0  0  0  0  0  0  0  0  0
    4.3092   -3.0462    0.0000 C   0  0  0  0  0  0  0  0  0  0  0  0
    0.7362   -5.1151    0.0000 C   0  0  0  0  0  0  0  0  0  0  0  0
    2.1451   -3.4588    0.0000 O   0  0  0  0  0  0  0  0  0  0  0  0
    2.1577   -4.2774    0.0000 C   0  0  0  0  0  0  0  0  0  0  0  0
    4.3917   -2.3926    0.0000 C   0  0  0  0  0  0  0  0  0  0  0  0
    4.3917   -1.5675    0.0000 O   0  0  0  0  0  0  0  0  0  0  0  0
    5.1151   -1.1043    0.0000 P   0  0  0  0  0  0  0  0  0  0  0  0
    5.8196   -0.6664    0.0000 O   0  0  0  0  0  0  0  0  0  0  0  0
    5.5531   -1.8087    0.0000 O   0  0  0  0  0  0  0  0  0  0  0  0
    4.6899   -0.3998    0.0000 O   0  0  0  0  0  0  0  0  0  0  0  0
    3.7571   -0.0888    0.0000 Na  0  0  0  0  0 15  0  0  0  0  0  0
    6.2068    0.0000    0.0000 Na  0  0  0  0  0 15  0  0  0  0  0  0
  1  3  1  0
  1  5  1  0
  1  8  1  0
  1 21  1  1
  2  6  1  0
  2  7  1  0
  2 15  1  0
  2 24  1  1
  3 11  1  0
  3 12  1  0
  3 20  1  6
  4  5  1  0
  4 14  1  6
  4  6  1  0
  5 13  1  1
  6  9  1  1
  7 10  2  0
  7 16  1  0
  8  9  1  0
  9 23  1  1
 10 17  1  0
 11 18  2  0
 11 25  1  0
 12 13  1  0
 14 16  1  0
 15 22  1  0
 17 22  1  0
 17 19  2  0
 25 26  1  0
 26 27  1  0
 27 28  1  0
 27 29  2  0
 27 30  1  0
M  CHG  4  28  -1  30  -1  31   1  32   1
M  END
>  <Formula>  (637) 
C21H29Na2O8P

>  <FW>  (637) 
486.4035 (440.4250+22.9892+22.9892)

>  <DSSTox_CID>  (637) 
26647

>  <NR-AR>  (637) 
1

>  <NR-AR-LBD>  (637) 
1

>  <NR-ER>  (637) 
1

>  <NR-PPAR-gamma>  (637) 
0

>  <NR-AhR>  (637) 
0

>  <SR-ATAD5>  (637) 
0

>  <SR-MMP>  (637) 
0

>  <SR-p53>  (637) 
0

$$$$
NCGC00016442-01
     RDKit          2D

 27 30  0  0  1  0  0  0  0  0999 V2000
    2.1571   -2.8843    0.0000 C   0  0  0  0  0  0  0  0  0  0  0  0
    2.8660   -2.4749    0.0000 C   0  0  0  0  0  0  0  0  0  0  0  0
    4.3021   -1.6560    0.0000 C   0  0  0  0  0  0  0  0  0  0  0  0
    2.1571   -3.7154    0.0000 C   0  0  0  0  0  0  0  0  0  0  0  0
    3.5871   -2.8843    0.0000 C   0  0  0  0  0  0  0  0  0  0  0  0
    5.0843   -1.3872    0.0000 C   0  0  0  0  0  0  0  0  0  0  0  0
    4.3021   -2.4749    0.0000 C   0  0  0  0  0  0  0  0  0  0  0  0
    2.8660   -1.6560    0.0000 C   0  0  0  0  0  0  0  0  0  0  0  0
    1.4605   -2.4749    0.0000 C   0  0  0  0  0  0  0  0  0  0  0  0
    3.5871   -1.2466    0.0000 C   0  0  0  0  0  0  0  0  0  0  0  0
    3.5871   -3.7154    0.0000 C   0  0  0  0  0  0  0  0  0  0  0  0
    1.4605   -4.1249    0.0000 C   0  0  0  0  0  0  0  0  0  0  0  0
    2.8660   -4.1249    0.0000 C   0  0  0  0  0  0  0  0  0  0  0  0
    5.5793   -2.0655    0.0000 C   0  0  0  0  0  0  0  0  0  0  0  0
    5.0843   -2.7255    0.0000 C   0  0  0  0  0  0  0  0  0  0  0  0
    0.7394   -2.8843    0.0000 C   0  0  0  0  0  0  0  0  0  0  0  0
    5.3104   -0.5989    0.0000 C   0  0  0  0  0  0  0  0  0  0  0  0
    0.7394   -3.7154    0.0000 C   0  0  0  0  0  0  0  0  0  0  0  0
    2.8660   -3.1838    0.0000 F   0  0  0  0  0  0  0  0  0  0  0  0
    4.7360    0.0000    0.0000 O   0  0  0  0  0  0  0  0  0  0  0  0
    0.0000   -4.1432    0.0000 O   0  0  0  0  0  0  0  0  0  0  0  0
    5.9215   -1.3872    0.0000 O   0  0  0  0  0  0  0  0  0  0  0  0
    2.1571   -2.0655    0.0000 C   0  0  0  0  0  0  0  0  0  0  0  0
    4.3021   -0.8189    0.0000 C   0  0  0  0  0  0  0  0  0  0  0  0
    2.1449   -1.2283    0.0000 O   0  0  0  0  0  0  0  0  0  0  0  0
    2.8783   -4.7726    0.0000 C   0  0  0  0  0  0  0  0  0  0  0  0
    6.1109   -0.3911    0.0000 C   0  0  0  0  0  0  0  0  0  0  0  0
  1  2  1  0
  1  4  1  0
  1  9  1  0
  1 23  1  1
  2  5  1  0
  2  8  1  0
  2 19  1  6
  3 10  1  0
  3  6  1  0
  3 24  1  1
  3  7  1  0
  4 12  2  0
  4 13  1  0
  5  7  1  0
  5 11  1  6
  6 17  1  0
  6 22  1  6
  6 14  1  0
  7 15  1  1
  8 10  1  0
  8 25  1  1
  9 16  2  0
 11 13  1  0
 12 18  1  0
 13 26  1  6
 14 15  1  0
 16 18  1  0
 17 20  2  0
 17 27  1  0
 18 21  2  0
M  END
>  <Formula>  (638) 
C22H29FO4

>  <FW>  (638) 
376.4617

>  <DSSTox_CID>  (638) 
27435

>  <NR-AR>  (638) 
1

>  <NR-AR-LBD>  (638) 
1

>  <NR-ER>  (638) 
0

>  <NR-ER-LBD>  (638) 
0

>  <NR-PPAR-gamma>  (638) 
0

>  <NR-AhR>  (638) 
0

>  <SR-ATAD5>  (638) 
0

>  <SR-p53>  (638) 
0

$$$$
NCGC00159320-03
     RDKit          2D

 34 37  0  0  1  0  0  0  0  0999 V2000
    4.3576   -2.2400    0.0000 C   0  0  0  0  0  0  0  0  0  0  0  0
    2.9051   -3.0809    0.0000 C   0  0  0  0  0  0  0  0  0  0  0  0
    5.1527   -2.0106    0.0000 C   0  0  0  0  0  0  0  0  0  0  0  0
    2.1865   -3.4632    0.0000 C   0  0  0  0  0  0  0  0  0  0  0  0
    4.3576   -3.0809    0.0000 C   0  0  0  0  0  0  0  0  0  0  0  0
    3.6467   -3.4861    0.0000 C   0  0  0  0  0  0  0  0  0  0  0  0
    2.1865   -4.3270    0.0000 C   0  0  0  0  0  0  0  0  0  0  0  0
    5.6343   -2.6452    0.0000 C   0  0  0  0  0  0  0  0  0  0  0  0
    2.9051   -2.2400    0.0000 C   0  0  0  0  0  0  0  0  0  0  0  0
    3.6160   -1.8577    0.0000 C   0  0  0  0  0  0  0  0  0  0  0  0
    1.4755   -3.0809    0.0000 C   0  0  0  0  0  0  0  0  0  0  0  0
    5.1527   -3.3026    0.0000 C   0  0  0  0  0  0  0  0  0  0  0  0
    5.1527   -1.1697    0.0000 C   0  0  0  0  0  0  0  0  0  0  0  0
    1.4755   -4.7322    0.0000 C   0  0  0  0  0  0  0  0  0  0  0  0
    3.6467   -4.3270    0.0000 C   0  0  0  0  0  0  0  0  0  0  0  0
    6.4447   -2.6452    0.0000 O   0  0  0  0  0  0  0  0  0  0  0  0
    0.7416   -3.4861    0.0000 C   0  0  0  0  0  0  0  0  0  0  0  0
    0.7416   -4.3270    0.0000 C   0  0  0  0  0  0  0  0  0  0  0  0
    6.8499   -3.2874    0.0000 C   0  0  0  0  0  0  0  0  0  0  0  0
    2.9051   -4.7322    0.0000 C   0  0  0  0  0  0  0  0  0  0  0  0
    3.0274   -0.7645    0.0000 C   0  0  0  0  0  0  0  0  0  0  0  0
    2.9280   -3.8378    0.0000 F   0  0  0  0  0  0  0  0  0  0  0  0
    4.4340   -0.7645    0.0000 C   0  0  0  0  0  0  0  0  0  0  0  0
    5.8637   -0.7645    0.0000 O   0  0  0  0  0  0  0  0  0  0  0  0
    3.7231   -1.1697    0.0000 O   0  0  0  0  0  0  0  0  0  0  0  0
    7.6449   -3.2874    0.0000 O   0  0  0  0  0  0  0  0  0  0  0  0
    5.9936   -1.7813    0.0000 O   0  0  0  0  0  0  0  0  0  0  0  0
    2.3470   -1.1697    0.0000 O   0  0  0  0  0  0  0  0  0  0  0  0
    0.0000   -4.7093    0.0000 O   0  0  0  0  0  0  0  0  0  0  0  0
    4.3576   -1.4449    0.0000 C   0  0  0  0  0  0  0  0  0  0  0  0
    2.1865   -1.8272    0.0000 O   0  0  0  0  0  0  0  0  0  0  0  0
    2.1865   -2.6452    0.0000 C   0  0  0  0  0  0  0  0  0  0  0  0
    6.4982   -3.9983    0.0000 C   0  0  0  0  0  0  0  0  0  0  0  0
    3.0274    0.0000    0.0000 C   0  0  0  0  0  0  0  0  0  0  0  0
  1  3  1  0
  1  5  1  0
  1 10  1  0
  1 30  1  1
  2  9  1  0
  2  4  1  0
  2 22  1  6
  2  6  1  0
  3  8  1  0
  3 13  1  0
  3 27  1  6
  4  7  1  0
  4 11  1  0
  4 32  1  1
  5  6  1  0
  5 12  1  1
  6 15  1  6
  7 14  2  0
  7 20  1  0
  8 16  1  6
  8 12  1  0
  9 10  1  0
  9 31  1  1
 11 17  2  0
 13 23  1  0
 13 24  2  0
 14 18  1  0
 15 20  1  0
 16 19  1  0
 17 18  1  0
 18 29  2  0
 19 26  2  0
 19 33  1  0
 21 25  1  0
 21 28  2  0
 21 34  1  0
 23 25  1  0
M  END
>  <Formula>  (639) 
C25H31FO8

>  <FW>  (639) 
478.5072

>  <DSSTox_CID>  (639) 
28639

>  <NR-AR>  (639) 
1

>  <NR-AR-LBD>  (639) 
0

>  <NR-ER-LBD>  (639) 
0

>  <NR-PPAR-gamma>  (639) 
0

>  <NR-AhR>  (639) 
0

>  <SR-ATAD5>  (639) 
0

>  <SR-MMP>  (639) 
0

>  <SR-p53>  (639) 
0

$$$$
NCGC00183274-01
     RDKit          2D

 31 34  0  0  1  0  0  0  0  0999 V2000
    4.3041   -1.6524    0.0000 C   0  0  0  0  0  0  0  0  0  0  0  0
    2.8775   -2.4906    0.0000 C   0  0  0  0  0  0  0  0  0  0  0  0
    2.1682   -2.8936    0.0000 C   0  0  0  0  0  0  0  0  0  0  0  0
    4.3041   -2.4906    0.0000 C   0  0  0  0  0  0  0  0  0  0  0  0
    5.0941   -1.3944    0.0000 C   0  0  0  0  0  0  0  0  0  0  0  0
    3.5949   -2.8936    0.0000 C   0  0  0  0  0  0  0  0  0  0  0  0
    2.1682   -3.7158    0.0000 C   0  0  0  0  0  0  0  0  0  0  0  0
    2.8775   -1.6524    0.0000 C   0  0  0  0  0  0  0  0  0  0  0  0
    3.5949   -1.2413    0.0000 C   0  0  0  0  0  0  0  0  0  0  0  0
    5.5777   -2.0554    0.0000 C   0  0  0  0  0  0  0  0  0  0  0  0
    1.4669   -2.4906    0.0000 C   0  0  0  0  0  0  0  0  0  0  0  0
    5.0941   -2.7244    0.0000 C   0  0  0  0  0  0  0  0  0  0  0  0
    5.3198   -0.5965    0.0000 C   0  0  0  0  0  0  0  0  0  0  0  0
    1.4669   -4.1188    0.0000 C   0  0  0  0  0  0  0  0  0  0  0  0
    3.5949   -3.7158    0.0000 C   0  0  0  0  0  0  0  0  0  0  0  0
    0.7335   -2.8936    0.0000 C   0  0  0  0  0  0  0  0  0  0  0  0
    0.7335   -3.7158    0.0000 C   0  0  0  0  0  0  0  0  0  0  0  0
    2.8775   -4.1188    0.0000 C   0  0  0  0  0  0  0  0  0  0  0  0
    2.8695   -3.1919    0.0000 F   0  0  0  0  0  0  0  0  0  0  0  0
    6.1177   -0.3869    0.0000 C   0  0  0  0  0  0  0  0  0  0  0  0
    4.7314    0.0000    0.0000 O   0  0  0  0  0  0  0  0  0  0  0  0
    6.6981   -0.9914    0.0000 O   0  0  0  0  0  0  0  0  0  0  0  0
    0.0000   -4.1510    0.0000 O   0  0  0  0  0  0  0  0  0  0  0  0
    5.9404   -1.3944    0.0000 O   0  0  0  0  0  0  0  0  0  0  0  0
    4.3041   -0.8222    0.0000 C   0  0  0  0  0  0  0  0  0  0  0  0
    2.1521   -1.2332    0.0000 O   0  0  0  0  0  0  0  0  0  0  0  0
    2.1682   -2.0554    0.0000 C   0  0  0  0  0  0  0  0  0  0  0  0
    6.4159   -2.0554    0.0000 C   0  0  0  0  0  0  0  0  0  0  0  0
    7.5041   -0.7899    0.0000 C   0  0  0  0  0  0  0  0  0  0  0  0
    7.7217   -0.0081    0.0000 O   0  0  0  0  0  0  0  0  0  0  0  0
    8.0602   -1.4025    0.0000 C   0  0  0  0  0  0  0  0  0  0  0  0
  1  4  1  0
  1  5  1  0
  1  9  1  0
  1 25  1  1
  2  8  1  0
  2  3  1  0
  2 19  1  6
  2  6  1  0
  3  7  1  0
  3 11  1  0
  3 27  1  1
  4  6  1  0
  4 12  1  1
  5 10  1  0
  5 13  1  0
  5 24  1  6
  6 15  1  6
  7 14  2  0
  7 18  1  0
  8  9  1  0
  8 26  1  1
 10 28  1  6
 10 12  1  0
 11 16  2  0
 13 20  1  0
 13 21  2  0
 14 17  1  0
 15 18  1  0
 16 17  1  0
 17 23  2  0
 20 22  1  0
 22 29  1  0
 29 30  2  0
 29 31  1  0
M  END
>  <Formula>  (640) 
C24H31FO6

>  <FW>  (640) 
434.4977

>  <DSSTox_CID>  (640) 
2901

>  <NR-AR>  (640) 
1

>  <NR-AR-LBD>  (640) 
1

>  <NR-ER>  (640) 
0

>  <NR-ER-LBD>  (640) 
0

>  <NR-AhR>  (640) 
0

>  <SR-ATAD5>  (640) 
0

>  <SR-MMP>  (640) 
0

>  <SR-p53>  (640) 
0

$$$$
NCGC00094765-01
     RDKit          2D

 29 32  0  0  1  0  0  0  0  0999 V2000
    4.3225   -2.3208    0.0000 C   0  0  0  0  0  0  0  0  0  0  0  0
    2.1772   -3.5250    0.0000 C   0  0  0  0  0  0  0  0  0  0  0  0
    5.1041   -2.0655    0.0000 C   0  0  0  0  0  0  0  0  0  0  0  0
    3.5968   -3.5410    0.0000 C   0  0  0  0  0  0  0  0  0  0  0  0
    4.3225   -3.1342    0.0000 C   0  0  0  0  0  0  0  0  0  0  0  0
    2.8790   -3.1342    0.0000 C   0  0  0  0  0  0  0  0  0  0  0  0
    2.1772   -4.3783    0.0000 C   0  0  0  0  0  0  0  0  0  0  0  0
    3.5968   -1.9060    0.0000 C   0  0  0  0  0  0  0  0  0  0  0  0
    2.8790   -2.3208    0.0000 C   0  0  0  0  0  0  0  0  0  0  0  0
    1.4594   -3.1342    0.0000 C   0  0  0  0  0  0  0  0  0  0  0  0
    5.1041   -1.2441    0.0000 C   0  0  0  0  0  0  0  0  0  0  0  0
    1.4594   -4.7771    0.0000 C   0  0  0  0  0  0  0  0  0  0  0  0
    5.5746   -2.7036    0.0000 C   0  0  0  0  0  0  0  0  0  0  0  0
    5.1041   -3.3974    0.0000 C   0  0  0  0  0  0  0  0  0  0  0  0
    3.5968   -4.3704    0.0000 C   0  0  0  0  0  0  0  0  0  0  0  0
    0.7337   -3.5410    0.0000 C   0  0  0  0  0  0  0  0  0  0  0  0
    0.7337   -4.3704    0.0000 C   0  0  0  0  0  0  0  0  0  0  0  0
    2.8790   -4.7771    0.0000 C   0  0  0  0  0  0  0  0  0  0  0  0
    7.2494   -0.8055    0.0000 C   0  0  0  0  0  0  0  0  0  0  0  0
    5.8058   -0.8214    0.0000 C   0  0  0  0  0  0  0  0  0  0  0  0
    4.4023   -0.8374    0.0000 O   0  0  0  0  0  0  0  0  0  0  0  0
    6.5316   -1.2441    0.0000 O   0  0  0  0  0  0  0  0  0  0  0  0
    7.2494    0.0000    0.0000 O   0  0  0  0  0  0  0  0  0  0  0  0
    0.0000   -4.7611    0.0000 O   0  0  0  0  0  0  0  0  0  0  0  0
    5.8856   -1.8183    0.0000 O   0  0  0  0  0  0  0  0  0  0  0  0
    4.3225   -1.4754    0.0000 C   0  0  0  0  0  0  0  0  0  0  0  0
    2.1692   -1.8981    0.0000 O   0  0  0  0  0  0  0  0  0  0  0  0
    2.1772   -2.7195    0.0000 C   0  0  0  0  0  0  0  0  0  0  0  0
    7.9751   -1.2281    0.0000 C   0  0  0  0  0  0  0  0  0  0  0  0
  1  3  1  0
  1  5  1  0
  1  8  1  0
  1 26  1  1
  2  6  1  0
  2  7  1  0
  2 10  1  0
  2 28  1  1
  3 11  1  0
  3 13  1  0
  3 25  1  6
  4  5  1  0
  4 15  1  6
  4  6  1  0
  5 14  1  1
  6  9  1  1
  7 12  2  0
  7 18  1  0
  8  9  1  0
  9 27  1  1
 10 16  2  0
 11 20  1  0
 11 21  2  0
 12 17  1  0
 13 14  1  0
 15 18  1  0
 16 17  1  0
 17 24  2  0
 19 22  1  0
 19 23  2  0
 19 29  1  0
 20 22  1  0
M  END
>  <Formula>  (641) 
C23H30O6

>  <FW>  (641) 
402.4807

>  <DSSTox_CID>  (641) 
3502

>  <NR-AR>  (641) 
1

>  <NR-AR-LBD>  (641) 
1

>  <NR-ER>  (641) 
1

>  <NR-PPAR-gamma>  (641) 
0

>  <NR-AhR>  (641) 
0

>  <SR-ATAD5>  (641) 
0

>  <SR-MMP>  (641) 
0

>  <SR-p53>  (641) 
0

$$$$
NCGC00183367-01
     RDKit          2D

 29 32  0  0  1  0  0  0  0  0999 V2000
    4.3251   -2.2666    0.0000 C   0  0  0  0  0  0  0  0  0  0  0  0
    5.1260   -2.0264    0.0000 C   0  0  0  0  0  0  0  0  0  0  0  0
    2.1626   -3.5241    0.0000 C   0  0  0  0  0  0  0  0  0  0  0  0
    3.6042   -3.5241    0.0000 C   0  0  0  0  0  0  0  0  0  0  0  0
    4.3251   -3.1237    0.0000 C   0  0  0  0  0  0  0  0  0  0  0  0
    2.8834   -3.1237    0.0000 C   0  0  0  0  0  0  0  0  0  0  0  0
    2.1626   -4.3491    0.0000 C   0  0  0  0  0  0  0  0  0  0  0  0
    3.6042   -1.8662    0.0000 C   0  0  0  0  0  0  0  0  0  0  0  0
    2.8834   -2.2666    0.0000 C   0  0  0  0  0  0  0  0  0  0  0  0
    5.1260   -1.2014    0.0000 C   0  0  0  0  0  0  0  0  0  0  0  0
    1.4737   -4.7496    0.0000 C   0  0  0  0  0  0  0  0  0  0  0  0
    5.6066   -2.6911    0.0000 C   0  0  0  0  0  0  0  0  0  0  0  0
    5.1260   -3.3560    0.0000 C   0  0  0  0  0  0  0  0  0  0  0  0
    3.6042   -4.3491    0.0000 C   0  0  0  0  0  0  0  0  0  0  0  0
    1.4737   -3.1237    0.0000 C   0  0  0  0  0  0  0  0  0  0  0  0
    2.8834   -4.7496    0.0000 C   0  0  0  0  0  0  0  0  0  0  0  0
    0.7128   -4.3491    0.0000 C   0  0  0  0  0  0  0  0  0  0  0  0
    7.2965   -0.8250    0.0000 C   0  0  0  0  0  0  0  0  0  0  0  0
    5.8469   -0.7769    0.0000 C   0  0  0  0  0  0  0  0  0  0  0  0
    4.4292   -0.7769    0.0000 O   0  0  0  0  0  0  0  0  0  0  0  0
    6.5677   -1.2254    0.0000 O   0  0  0  0  0  0  0  0  0  0  0  0
    8.0094   -1.2495    0.0000 O   0  0  0  0  0  0  0  0  0  0  0  0
    0.0000   -4.7175    0.0000 O   0  0  0  0  0  0  0  0  0  0  0  0
    5.9510   -2.0744    0.0000 O   0  0  0  0  0  0  0  0  0  0  0  0
    4.3011   -1.4417    0.0000 C   0  0  0  0  0  0  0  0  0  0  0  0
    0.7128   -3.5241    0.0000 C   0  0  0  0  0  0  0  0  0  0  0  0
    2.1626   -1.8342    0.0000 O   0  0  0  0  0  0  0  0  0  0  0  0
    2.1626   -2.6911    0.0000 C   0  0  0  0  0  0  0  0  0  0  0  0
    7.2965    0.0000    0.0000 C   0  0  0  0  0  0  0  0  0  0  0  0
  1  2  1  0
  1  5  1  0
  1  8  1  0
  1 25  1  1
  2 10  1  0
  2 12  1  0
  2 24  1  6
  3  6  1  0
  3  7  1  0
  3 15  1  0
  3 28  1  1
  4  5  1  0
  4 14  1  0
  4  6  1  0
  5 13  1  0
  6  9  1  0
  7 11  2  0
  7 16  1  0
  8  9  1  0
  9 27  1  1
 10 19  1  0
 10 20  2  0
 11 17  1  0
 12 13  1  0
 14 16  1  0
 15 26  1  0
 17 26  1  0
 17 23  2  0
 18 21  1  0
 18 22  2  0
 18 29  1  0
 19 21  1  0
M  END
>  <Formula>  (642) 
C23H32O6

>  <FW>  (642) 
404.4966

>  <DSSTox_CID>  (642) 
28612

>  <NR-AR>  (642) 
1

>  <NR-AR-LBD>  (642) 
1

>  <NR-ER-LBD>  (642) 
0

>  <NR-PPAR-gamma>  (642) 
0

>  <NR-AhR>  (642) 
0

>  <SR-ATAD5>  (642) 
0

>  <SR-MMP>  (642) 
0

>  <SR-p53>  (642) 
0

$$$$
NCGC00164585-01
     RDKit          2D

 31 33  0  0  1  0  0  0  0  0999 V2000
    2.1550   -2.8889    0.0000 C   0  0  0  0  0  0  0  0  0  0  0  0
    4.2966   -1.6613    0.0000 C   0  0  0  0  0  0  0  0  0  0  0  0
    2.8689   -2.4886    0.0000 C   0  0  0  0  0  0  0  0  0  0  0  0
    2.1550   -3.7162    0.0000 C   0  0  0  0  0  0  0  0  0  0  0  0
    4.2966   -2.4886    0.0000 C   0  0  0  0  0  0  0  0  0  0  0  0
    3.5761   -2.8889    0.0000 C   0  0  0  0  0  0  0  0  0  0  0  0
    5.0773   -1.3944    0.0000 C   0  0  0  0  0  0  0  0  0  0  0  0
    1.4545   -2.4886    0.0000 C   0  0  0  0  0  0  0  0  0  0  0  0
    1.4545   -4.1298    0.0000 C   0  0  0  0  0  0  0  0  0  0  0  0
    2.8689   -1.6613    0.0000 C   0  0  0  0  0  0  0  0  0  0  0  0
    3.5761   -1.2476    0.0000 C   0  0  0  0  0  0  0  0  0  0  0  0
    0.7406   -2.8889    0.0000 C   0  0  0  0  0  0  0  0  0  0  0  0
    5.5643   -2.0816    0.0000 C   0  0  0  0  0  0  0  0  0  0  0  0
    0.7406   -3.7162    0.0000 C   0  0  0  0  0  0  0  0  0  0  0  0
    5.0773   -2.7355    0.0000 C   0  0  0  0  0  0  0  0  0  0  0  0
    3.5761   -3.7162    0.0000 C   0  0  0  0  0  0  0  0  0  0  0  0
    2.8689   -4.1298    0.0000 C   0  0  0  0  0  0  0  0  0  0  0  0
    5.3041   -0.5938    0.0000 C   0  0  0  0  0  0  0  0  0  0  0  0
    2.8822   -3.2692    0.0000 F   0  0  0  0  0  0  0  0  0  0  0  0
    0.0000   -4.1499    0.0000 O   0  0  0  0  0  0  0  0  0  0  0  0
    4.7236    0.0000    0.0000 O   0  0  0  0  0  0  0  0  0  0  0  0
    5.9113   -1.3944    0.0000 O   0  0  0  0  0  0  0  0  0  0  0  0
    0.0000   -2.4686    0.0000 Cl  0  0  0  0  0  0  0  0  0  0  0  0
    2.1550   -2.0816    0.0000 C   0  0  0  0  0  0  0  0  0  0  0  0
    4.2966   -0.8206    0.0000 C   0  0  0  0  0  0  0  0  0  0  0  0
    2.1350   -1.2276    0.0000 O   0  0  0  0  0  0  0  0  0  0  0  0
    2.8689   -4.9705    0.0000 F   0  0  0  0  0  0  0  0  0  0  0  0
    6.3850   -2.0683    0.0000 C   0  0  0  0  0  0  0  0  0  0  0  0
    6.0980   -0.4003    0.0000 C   0  0  0  0  0  0  0  0  0  0  0  0
    6.6718   -0.9941    0.0000 O   0  0  0  0  0  0  0  0  0  0  0  0
    5.6244   -3.7229    0.0000 O   0  0  0  0  0  0  0  0  0  0  0  0
  1  3  1  0
  1  4  1  0
  1  8  1  0
  1 24  1  1
  2 11  1  0
  2  7  1  0
  2 25  1  1
  2  5  1  0
  3  6  1  0
  3 10  1  0
  3 19  1  6
  4  9  2  0
  4 17  1  0
  5  6  1  0
  5 15  1  1
  6 16  1  6
  7 18  1  0
  7 22  1  6
  7 13  1  0
  8 12  2  0
  9 14  1  0
 10 11  1  0
 10 26  1  1
 12 14  1  0
 12 23  1  0
 13 15  1  0
 13 28  1  6
 14 20  2  0
 16 17  1  0
 17 27  1  6
 18 21  2  0
 18 29  1  0
 29 30  1  0
M  END
>  <Formula>  (643) 
C22H29ClF2O6

>  <FW>  (643) 
462.9119 (444.8966+18.0153)

>  <DSSTox_CID>  (643) 
26460

>  <NR-AR>  (643) 
1

>  <NR-AR-LBD>  (643) 
1

>  <NR-ER>  (643) 
0

>  <NR-ER-LBD>  (643) 
0

>  <NR-PPAR-gamma>  (643) 
0

>  <NR-AhR>  (643) 
0

>  <SR-ATAD5>  (643) 
0

>  <SR-p53>  (643) 
0

$$$$
NCGC00016604-01
     RDKit          2D

 29 32  0  0  1  0  0  0  0  0999 V2000
    6.4825    0.0000    0.0000 O   0  0  0  0  0  0  0  0  0  0  0  0
    2.1717   -3.1894    0.0000 C   0  0  0  0  0  0  0  0  0  0  0  0
    4.3174   -1.9513    0.0000 C   0  0  0  0  0  0  0  0  0  0  0  0
    2.8847   -2.7810    0.0000 C   0  0  0  0  0  0  0  0  0  0  0  0
    2.1717   -4.0192    0.0000 C   0  0  0  0  0  0  0  0  0  0  0  0
    4.3174   -2.7810    0.0000 C   0  0  0  0  0  0  0  0  0  0  0  0
    3.5978   -3.1894    0.0000 C   0  0  0  0  0  0  0  0  0  0  0  0
    5.1018   -1.6984    0.0000 C   0  0  0  0  0  0  0  0  0  0  0  0
    2.8847   -1.9513    0.0000 C   0  0  0  0  0  0  0  0  0  0  0  0
    1.4521   -2.7810    0.0000 C   0  0  0  0  0  0  0  0  0  0  0  0
    3.5978   -1.5363    0.0000 C   0  0  0  0  0  0  0  0  0  0  0  0
    5.5815   -2.3661    0.0000 C   0  0  0  0  0  0  0  0  0  0  0  0
    5.1018   -3.0339    0.0000 C   0  0  0  0  0  0  0  0  0  0  0  0
    3.5978   -4.0192    0.0000 C   0  0  0  0  0  0  0  0  0  0  0  0
    2.8847   -4.4276    0.0000 C   0  0  0  0  0  0  0  0  0  0  0  0
    1.4521   -4.4276    0.0000 C   0  0  0  0  0  0  0  0  0  0  0  0
    5.3287   -0.9075    0.0000 C   0  0  0  0  0  0  0  0  0  0  0  0
    0.7261   -3.1894    0.0000 C   0  0  0  0  0  0  0  0  0  0  0  0
    0.7261   -4.0127    0.0000 C   0  0  0  0  0  0  0  0  0  0  0  0
    2.8653   -3.5784    0.0000 F   0  0  0  0  0  0  0  0  0  0  0  0
    4.7582   -0.3177    0.0000 O   0  0  0  0  0  0  0  0  0  0  0  0
    0.0000   -4.4211    0.0000 O   0  0  0  0  0  0  0  0  0  0  0  0
    5.9186   -1.6142    0.0000 O   0  0  0  0  0  0  0  0  0  0  0  0
    2.1717   -2.3467    0.0000 C   0  0  0  0  0  0  0  0  0  0  0  0
    4.3368   -1.1669    0.0000 C   0  0  0  0  0  0  0  0  0  0  0  0
    2.1717   -1.5299    0.0000 O   0  0  0  0  0  0  0  0  0  0  0  0
    2.8847   -5.2573    0.0000 F   0  0  0  0  0  0  0  0  0  0  0  0
    6.4113   -2.3661    0.0000 C   0  0  0  0  0  0  0  0  0  0  0  0
    6.1260   -0.7001    0.0000 C   0  0  0  0  0  0  0  0  0  0  0  0
  1 29  1  0
  2  4  1  0
  2  5  1  0
  2 10  1  0
  2 24  1  1
  3 11  1  0
  3  8  1  0
  3 25  1  1
  3  6  1  0
  4  7  1  0
  4  9  1  0
  4 20  1  6
  5 15  1  0
  5 16  2  0
  6  7  1  0
  6 13  1  1
  7 14  1  6
  8 17  1  0
  8 23  1  6
  8 12  1  0
  9 11  1  0
  9 26  1  1
 10 18  2  0
 12 13  1  0
 12 28  1  6
 14 15  1  0
 15 27  1  6
 16 19  1  0
 17 21  2  0
 17 29  1  0
 18 19  1  0
 19 22  2  0
M  END
>  <Formula>  (644) 
C22H28F2O5

>  <FW>  (644) 
410.4515

>  <DSSTox_CID>  (644) 
25365

>  <NR-AR>  (644) 
1

>  <NR-AR-LBD>  (644) 
1

>  <NR-ER>  (644) 
0

>  <NR-ER-LBD>  (644) 
0

>  <NR-PPAR-gamma>  (644) 
0

>  <NR-AhR>  (644) 
0

>  <SR-MMP>  (644) 
0

>  <SR-p53>  (644) 
0

$$$$
NCGC00181081-01
     RDKit          2D

 27 30  0  0  1  0  0  0  0  0999 V2000
    4.3204   -1.6210    0.0000 C   0  0  0  0  0  0  0  0  0  0  0  0
    2.8803   -2.4449    0.0000 C   0  0  0  0  0  0  0  0  0  0  0  0
    2.1636   -2.8534    0.0000 C   0  0  0  0  0  0  0  0  0  0  0  0
    3.5970   -2.8601    0.0000 C   0  0  0  0  0  0  0  0  0  0  0  0
    5.1107   -1.3664    0.0000 C   0  0  0  0  0  0  0  0  0  0  0  0
    4.3204   -2.4516    0.0000 C   0  0  0  0  0  0  0  0  0  0  0  0
    2.1636   -3.6840    0.0000 C   0  0  0  0  0  0  0  0  0  0  0  0
    2.8803   -1.6210    0.0000 C   0  0  0  0  0  0  0  0  0  0  0  0
    3.5970   -1.2124    0.0000 C   0  0  0  0  0  0  0  0  0  0  0  0
    1.4535   -4.0926    0.0000 C   0  0  0  0  0  0  0  0  0  0  0  0
    5.3385   -0.5827    0.0000 C   0  0  0  0  0  0  0  0  0  0  0  0
    5.5863   -2.0161    0.0000 C   0  0  0  0  0  0  0  0  0  0  0  0
    5.1107   -2.6994    0.0000 C   0  0  0  0  0  0  0  0  0  0  0  0
    3.5970   -3.6840    0.0000 C   0  0  0  0  0  0  0  0  0  0  0  0
    1.4535   -2.4449    0.0000 C   0  0  0  0  0  0  0  0  0  0  0  0
    2.8803   -4.0926    0.0000 C   0  0  0  0  0  0  0  0  0  0  0  0
    0.7234   -3.6773    0.0000 C   0  0  0  0  0  0  0  0  0  0  0  0
    2.8601   -3.2084    0.0000 F   0  0  0  0  0  0  0  0  0  0  0  0
    4.7624    0.0000    0.0000 O   0  0  0  0  0  0  0  0  0  0  0  0
    0.0000   -4.0859    0.0000 O   0  0  0  0  0  0  0  0  0  0  0  0
    5.9213   -1.4602    0.0000 O   0  0  0  0  0  0  0  0  0  0  0  0
    4.3204   -0.7904    0.0000 C   0  0  0  0  0  0  0  0  0  0  0  0
    0.7234   -2.8601    0.0000 C   0  0  0  0  0  0  0  0  0  0  0  0
    2.1434   -1.1990    0.0000 O   0  0  0  0  0  0  0  0  0  0  0  0
    2.1636   -2.0161    0.0000 C   0  0  0  0  0  0  0  0  0  0  0  0
    6.1088   -0.3751    0.0000 C   0  0  0  0  0  0  0  0  0  0  0  0
    6.6983   -0.9646    0.0000 O   0  0  0  0  0  0  0  0  0  0  0  0
  1  5  1  0
  1  6  1  0
  1  9  1  0
  1 22  1  1
  2  8  1  0
  2  3  1  0
  2 18  1  6
  2  4  1  0
  3  7  1  0
  3 15  1  0
  3 25  1  1
  4  6  1  0
  4 14  1  6
  5 11  1  0
  5 12  1  0
  5 21  1  6
  6 13  1  1
  7 10  2  0
  7 16  1  0
  8  9  1  0
  8 24  1  1
 10 17  1  0
 11 19  2  0
 11 26  1  0
 12 13  1  0
 14 16  1  0
 15 23  1  0
 17 23  1  0
 17 20  2  0
 26 27  1  0
M  END
>  <Formula>  (645) 
C21H29FO5

>  <FW>  (645) 
380.4504

>  <DSSTox_CID>  (645) 
3061

>  <NR-AR>  (645) 
1

>  <NR-AR-LBD>  (645) 
1

>  <NR-ER>  (645) 
1

>  <NR-PPAR-gamma>  (645) 
0

>  <NR-AhR>  (645) 
0

>  <SR-ATAD5>  (645) 
0

>  <SR-MMP>  (645) 
0

>  <SR-p53>  (645) 
0

$$$$
NCGC00018263-02
     RDKit          2D

 32 35  0  0  1  0  0  0  0  0999 V2000
    4.3152   -2.3079    0.0000 C   0  0  0  0  0  0  0  0  0  0  0  0
    2.1576   -3.5547    0.0000 C   0  0  0  0  0  0  0  0  0  0  0  0
    5.1022   -2.0603    0.0000 C   0  0  0  0  0  0  0  0  0  0  0  0
    3.5990   -3.5547    0.0000 C   0  0  0  0  0  0  0  0  0  0  0  0
    4.3152   -3.1391    0.0000 C   0  0  0  0  0  0  0  0  0  0  0  0
    2.8738   -3.1303    0.0000 C   0  0  0  0  0  0  0  0  0  0  0  0
    2.1576   -4.3771    0.0000 C   0  0  0  0  0  0  0  0  0  0  0  0
    3.5901   -1.9011    0.0000 C   0  0  0  0  0  0  0  0  0  0  0  0
    2.8738   -2.3079    0.0000 C   0  0  0  0  0  0  0  0  0  0  0  0
    1.4502   -4.7838    0.0000 C   0  0  0  0  0  0  0  0  0  0  0  0
    5.1022   -1.2291    0.0000 C   0  0  0  0  0  0  0  0  0  0  0  0
    5.5708   -2.7147    0.0000 C   0  0  0  0  0  0  0  0  0  0  0  0
    5.1022   -3.3779    0.0000 C   0  0  0  0  0  0  0  0  0  0  0  0
    3.5990   -4.3682    0.0000 C   0  0  0  0  0  0  0  0  0  0  0  0
    1.4502   -3.1303    0.0000 C   0  0  0  0  0  0  0  0  0  0  0  0
    2.8738   -4.7838    0.0000 C   0  0  0  0  0  0  0  0  0  0  0  0
    0.7339   -4.3682    0.0000 C   0  0  0  0  0  0  0  0  0  0  0  0
    5.8184   -0.8135    0.0000 O   0  0  0  0  0  0  0  0  0  0  0  0
    0.0000   -4.7661    0.0000 O   0  0  0  0  0  0  0  0  0  0  0  0
    5.9245   -2.0869    0.0000 O   0  0  0  0  0  0  0  0  0  0  0  0
    4.3152   -1.4856    0.0000 C   0  0  0  0  0  0  0  0  0  0  0  0
    0.7339   -3.5547    0.0000 C   0  0  0  0  0  0  0  0  0  0  0  0
    2.1487   -1.8923    0.0000 O   0  0  0  0  0  0  0  0  0  0  0  0
    2.1576   -2.7147    0.0000 C   0  0  0  0  0  0  0  0  0  0  0  0
    4.3947   -0.8224    0.0000 C   0  0  0  0  0  0  0  0  0  0  0  0
    4.3947    0.0000    0.0000 O   0  0  0  0  0  0  0  0  0  0  0  0
    6.3136   -2.8208    0.0000 C   0  0  0  0  0  0  0  0  0  0  0  0
    7.2244   -2.8385    0.0000 C   0  0  0  0  0  0  0  0  0  0  0  0
    5.8803   -3.5193    0.0000 O   0  0  0  0  0  0  0  0  0  0  0  0
    7.5781   -2.1487    0.0000 C   0  0  0  0  0  0  0  0  0  0  0  0
    8.4093   -2.1487    0.0000 C   0  0  0  0  0  0  0  0  0  0  0  0
    8.8426   -1.4856    0.0000 C   0  0  0  0  0  0  0  0  0  0  0  0
  1  3  1  0
  1  5  1  0
  1  8  1  0
  1 21  1  1
  2  6  1  0
  2  7  1  0
  2 15  1  0
  2 24  1  1
  3 11  1  0
  3 12  1  0
  3 20  1  6
  4  5  1  0
  4 14  1  6
  4  6  1  0
  5 13  1  1
  6  9  1  1
  7 10  2  0
  7 16  1  0
  8  9  1  0
  9 23  1  1
 10 17  1  0
 11 18  2  0
 11 25  1  0
 12 13  1  0
 14 16  1  0
 15 22  1  0
 17 22  1  0
 17 19  2  0
 20 27  1  0
 25 26  1  0
 27 28  1  0
 27 29  2  0
 28 30  1  0
 30 31  1  0
 31 32  1  0
M  END
>  <Formula>  (646) 
C26H38O6

>  <FW>  (646) 
446.5763

>  <DSSTox_CID>  (646) 
25633

>  <NR-AR>  (646) 
1

>  <NR-AR-LBD>  (646) 
1

>  <NR-ER>  (646) 
0

>  <NR-PPAR-gamma>  (646) 
0

>  <NR-AhR>  (646) 
0

>  <SR-ATAD5>  (646) 
0

>  <SR-MMP>  (646) 
0

>  <SR-p53>  (646) 
0

$$$$
NCGC00167983-01
     RDKit          2D

 30 34  0  0  1  0  0  0  0  0999 V2000
    5.0865   -2.0503    0.0000 C   0  0  0  0  0  0  0  0  0  0  0  0
    4.3007   -2.2933    0.0000 C   0  0  0  0  0  0  0  0  0  0  0  0
    4.3007   -3.1219    0.0000 C   0  0  0  0  0  0  0  0  0  0  0  0
    2.1575   -3.5363    0.0000 C   0  0  0  0  0  0  0  0  0  0  0  0
    3.5791   -3.5363    0.0000 C   0  0  0  0  0  0  0  0  0  0  0  0
    5.5366   -2.7004    0.0000 C   0  0  0  0  0  0  0  0  0  0  0  0
    2.8647   -3.1219    0.0000 C   0  0  0  0  0  0  0  0  0  0  0  0
    2.1575   -4.3650    0.0000 C   0  0  0  0  0  0  0  0  0  0  0  0
    3.5791   -1.8860    0.0000 C   0  0  0  0  0  0  0  0  0  0  0  0
    2.8647   -2.2933    0.0000 C   0  0  0  0  0  0  0  0  0  0  0  0
    1.4360   -3.1219    0.0000 C   0  0  0  0  0  0  0  0  0  0  0  0
    5.0865   -3.3791    0.0000 C   0  0  0  0  0  0  0  0  0  0  0  0
    1.4360   -4.7650    0.0000 C   0  0  0  0  0  0  0  0  0  0  0  0
    3.5791   -4.3650    0.0000 C   0  0  0  0  0  0  0  0  0  0  0  0
    0.7216   -3.5363    0.0000 C   0  0  0  0  0  0  0  0  0  0  0  0
    0.7216   -4.3650    0.0000 C   0  0  0  0  0  0  0  0  0  0  0  0
    2.8647   -4.7650    0.0000 C   0  0  0  0  0  0  0  0  0  0  0  0
    0.0000   -4.7865    0.0000 O   0  0  0  0  0  0  0  0  0  0  0  0
    4.3007   -1.4717    0.0000 C   0  0  0  0  0  0  0  0  0  0  0  0
    2.1575   -1.8646    0.0000 O   0  0  0  0  0  0  0  0  0  0  0  0
    2.1575   -2.7004    0.0000 C   0  0  0  0  0  0  0  0  0  0  0  0
    5.5652   -1.4073    0.0000 O   0  0  0  0  0  0  0  0  0  0  0  0
    6.3224   -1.6717    0.0000 C   0  0  0  0  0  0  0  0  0  0  0  0
    6.2939   -2.4647    0.0000 O   0  0  0  0  0  0  0  0  0  0  0  0
    5.0865   -1.2216    0.0000 C   0  0  0  0  0  0  0  0  0  0  0  0
    5.7866   -0.8144    0.0000 C   0  0  0  0  0  0  0  0  0  0  0  0
    4.3721   -0.8287    0.0000 O   0  0  0  0  0  0  0  0  0  0  0  0
    5.7866    0.0000    0.0000 O   0  0  0  0  0  0  0  0  0  0  0  0
    7.1440   -1.6717    0.0000 C   0  0  0  0  0  0  0  0  0  0  0  0
    6.8939   -1.0930    0.0000 C   0  0  0  0  0  0  0  0  0  0  0  0
  1  2  1  0
  1 22  1  0
  1  6  1  0
  1 25  1  1
  2  3  1  0
  2  9  1  0
  2 19  1  1
  3  5  1  0
  3 12  1  1
  4  7  1  0
  4  8  1  0
  4 11  1  0
  4 21  1  1
  5 14  1  6
  5  7  1  0
  6 12  1  6
  6 24  1  0
  7 10  1  1
  8 13  2  0
  8 17  1  0
  9 10  1  0
 10 20  1  1
 11 15  2  0
 13 16  1  0
 14 17  1  0
 15 16  1  0
 16 18  2  0
 22 23  1  0
 23 24  1  0
 23 29  1  0
 23 30  1  0
 25 26  1  0
 25 27  2  0
 26 28  1  0
M  END
>  <Formula>  (647) 
C24H32O6

>  <FW>  (647) 
416.5073

>  <DSSTox_CID>  (647) 
26756

>  <NR-AR>  (647) 
1

>  <NR-AR-LBD>  (647) 
0

>  <NR-ER>  (647) 
1

>  <NR-ER-LBD>  (647) 
0

>  <NR-PPAR-gamma>  (647) 
0

>  <NR-AhR>  (647) 
0

>  <SR-MMP>  (647) 
0

>  <SR-p53>  (647) 
0

$$$$
NCGC00016433-01
     RDKit          2D

 30 33  0  0  1  0  0  0  0  0999 V2000
    4.3295   -2.3208    0.0000 C   0  0  0  0  0  0  0  0  0  0  0  0
    2.8890   -3.1451    0.0000 C   0  0  0  0  0  0  0  0  0  0  0  0
    2.1848   -3.5612    0.0000 C   0  0  0  0  0  0  0  0  0  0  0  0
    3.6012   -3.5612    0.0000 C   0  0  0  0  0  0  0  0  0  0  0  0
    5.1138   -2.0647    0.0000 C   0  0  0  0  0  0  0  0  0  0  0  0
    4.3295   -3.1451    0.0000 C   0  0  0  0  0  0  0  0  0  0  0  0
    2.1848   -4.4015    0.0000 C   0  0  0  0  0  0  0  0  0  0  0  0
    2.8890   -2.3208    0.0000 C   0  0  0  0  0  0  0  0  0  0  0  0
    3.6012   -1.9127    0.0000 C   0  0  0  0  0  0  0  0  0  0  0  0
    1.4565   -3.1451    0.0000 C   0  0  0  0  0  0  0  0  0  0  0  0
    5.1138   -1.2244    0.0000 C   0  0  0  0  0  0  0  0  0  0  0  0
    1.4565   -4.8097    0.0000 C   0  0  0  0  0  0  0  0  0  0  0  0
    5.6100   -2.7369    0.0000 C   0  0  0  0  0  0  0  0  0  0  0  0
    5.1138   -3.3932    0.0000 C   0  0  0  0  0  0  0  0  0  0  0  0
    3.6012   -4.4015    0.0000 C   0  0  0  0  0  0  0  0  0  0  0  0
    0.7362   -3.5612    0.0000 C   0  0  0  0  0  0  0  0  0  0  0  0
    0.7362   -4.4015    0.0000 C   0  0  0  0  0  0  0  0  0  0  0  0
    2.8890   -4.8097    0.0000 C   0  0  0  0  0  0  0  0  0  0  0  0
    7.2745   -0.8243    0.0000 C   0  0  0  0  0  0  0  0  0  0  0  0
    2.8890   -3.9454    0.0000 F   0  0  0  0  0  0  0  0  0  0  0  0
    5.8420   -0.8083    0.0000 C   0  0  0  0  0  0  0  0  0  0  0  0
    4.3855   -0.8083    0.0000 O   0  0  0  0  0  0  0  0  0  0  0  0
    6.5463   -1.2244    0.0000 O   0  0  0  0  0  0  0  0  0  0  0  0
    7.2745    0.0000    0.0000 O   0  0  0  0  0  0  0  0  0  0  0  0
    0.0000   -4.8257    0.0000 O   0  0  0  0  0  0  0  0  0  0  0  0
    5.9540   -2.0887    0.0000 O   0  0  0  0  0  0  0  0  0  0  0  0
    4.3295   -1.5285    0.0000 C   0  0  0  0  0  0  0  0  0  0  0  0
    2.1607   -1.8886    0.0000 O   0  0  0  0  0  0  0  0  0  0  0  0
    2.1848   -2.7369    0.0000 C   0  0  0  0  0  0  0  0  0  0  0  0
    8.0028   -1.2004    0.0000 C   0  0  0  0  0  0  0  0  0  0  0  0
  1  5  1  0
  1  6  1  0
  1  9  1  0
  1 27  1  1
  2  8  1  0
  2  3  1  0
  2 20  1  6
  2  4  1  0
  3  7  1  0
  3 10  1  0
  3 29  1  1
  4  6  1  0
  4 15  1  6
  5 11  1  0
  5 13  1  0
  5 26  1  6
  6 14  1  1
  7 12  2  0
  7 18  1  0
  8  9  1  0
  8 28  1  1
 10 16  2  0
 11 21  1  0
 11 22  2  0
 12 17  1  0
 13 14  1  0
 15 18  1  0
 16 17  1  0
 17 25  2  0
 19 23  1  0
 19 24  2  0
 19 30  1  0
 21 23  1  0
M  END
>  <Formula>  (648) 
C23H29FO6

>  <FW>  (648) 
420.4712

>  <DSSTox_CID>  (648) 
25306

>  <NR-AR>  (648) 
1

>  <NR-AR-LBD>  (648) 
1

>  <NR-ER>  (648) 
0

>  <NR-ER-LBD>  (648) 
0

>  <NR-PPAR-gamma>  (648) 
0

>  <SR-ATAD5>  (648) 
0

>  <SR-MMP>  (648) 
0

>  <SR-p53>  (648) 
0

$$$$
NCGC00168749-01
     RDKit          2D

 36 39  0  0  1  0  0  0  0  0999 V2000
    2.1660   -2.8584    0.0000 C   0  0  0  0  0  0  0  0  0  0  0  0
    4.2836   -1.6346    0.0000 C   0  0  0  0  0  0  0  0  0  0  0  0
    2.8665   -2.4720    0.0000 C   0  0  0  0  0  0  0  0  0  0  0  0
    5.0727   -1.3850    0.0000 C   0  0  0  0  0  0  0  0  0  0  0  0
    2.1660   -3.6958    0.0000 C   0  0  0  0  0  0  0  0  0  0  0  0
    3.5912   -2.8584    0.0000 C   0  0  0  0  0  0  0  0  0  0  0  0
    4.2836   -2.4720    0.0000 C   0  0  0  0  0  0  0  0  0  0  0  0
    2.8665   -1.6426    0.0000 C   0  0  0  0  0  0  0  0  0  0  0  0
    1.4332   -2.4720    0.0000 C   0  0  0  0  0  0  0  0  0  0  0  0
    3.5751   -1.2239    0.0000 C   0  0  0  0  0  0  0  0  0  0  0  0
    3.5912   -3.6958    0.0000 C   0  0  0  0  0  0  0  0  0  0  0  0
    2.8665   -4.1307    0.0000 C   0  0  0  0  0  0  0  0  0  0  0  0
    1.4332   -4.1307    0.0000 C   0  0  0  0  0  0  0  0  0  0  0  0
    5.2901   -0.5878    0.0000 C   0  0  0  0  0  0  0  0  0  0  0  0
    5.5397   -2.0452    0.0000 C   0  0  0  0  0  0  0  0  0  0  0  0
    5.7732   -1.3850    0.0000 O   0  0  0  0  0  0  0  0  0  0  0  0
    5.0727   -2.7054    0.0000 C   0  0  0  0  0  0  0  0  0  0  0  0
    0.7166   -2.8584    0.0000 C   0  0  0  0  0  0  0  0  0  0  0  0
    0.7166   -3.6958    0.0000 C   0  0  0  0  0  0  0  0  0  0  0  0
    6.2000   -2.1176    0.0000 C   0  0  0  0  0  0  0  0  0  0  0  0
    7.4480   -0.7891    0.0000 C   0  0  0  0  0  0  0  0  0  0  0  0
    2.8584   -3.3013    0.0000 F   0  0  0  0  0  0  0  0  0  0  0  0
    6.0792   -0.4026    0.0000 C   0  0  0  0  0  0  0  0  0  0  0  0
    4.7104    0.0000    0.0000 O   0  0  0  0  0  0  0  0  0  0  0  0
    6.6429   -0.9984    0.0000 O   0  0  0  0  0  0  0  0  0  0  0  0
    7.0374   -2.1176    0.0000 O   0  0  0  0  0  0  0  0  0  0  0  0
    8.0520   -1.3447    0.0000 O   0  0  0  0  0  0  0  0  0  0  0  0
    0.0000   -4.1307    0.0000 O   0  0  0  0  0  0  0  0  0  0  0  0
    2.1660   -2.0452    0.0000 C   0  0  0  0  0  0  0  0  0  0  0  0
    4.2836   -0.8374    0.0000 C   0  0  0  0  0  0  0  0  0  0  0  0
    2.1418   -1.2159    0.0000 O   0  0  0  0  0  0  0  0  0  0  0  0
    2.8826   -4.9439    0.0000 F   0  0  0  0  0  0  0  0  0  0  0  0
    5.7813   -2.7779    0.0000 C   0  0  0  0  0  0  0  0  0  0  0  0
    7.7138   -0.0080    0.0000 C   0  0  0  0  0  0  0  0  0  0  0  0
    6.2000   -3.5187    0.0000 C   0  0  0  0  0  0  0  0  0  0  0  0
    5.7813   -4.2353    0.0000 C   0  0  0  0  0  0  0  0  0  0  0  0
  1  3  1  0
  1  5  1  0
  1  9  1  0
  1 29  1  1
  2 10  1  0
  2  4  1  0
  2 30  1  1
  2  7  1  0
  3  6  1  0
  3  8  1  0
  3 22  1  6
  4 14  1  0
  4 16  1  6
  4 15  1  0
  5 12  1  0
  5 13  2  0
  6  7  1  0
  6 11  1  6
  7 17  1  1
  8 10  1  0
  8 31  1  1
  9 18  2  0
 11 12  1  0
 12 32  1  6
 13 19  1  0
 14 23  1  0
 14 24  2  0
 15 17  1  0
 16 20  1  0
 18 19  1  0
 19 28  2  0
 20 26  2  0
 20 33  1  0
 21 25  1  0
 21 27  2  0
 21 34  1  0
 23 25  1  0
 33 35  1  0
 35 36  1  0
M  END
>  <Formula>  (649) 
C27H34F2O7

>  <FW>  (649) 
508.5515

>  <DSSTox_CID>  (649) 
26773

>  <NR-AR>  (649) 
1

>  <NR-AR-LBD>  (649) 
1

>  <NR-ER>  (649) 
0

>  <NR-ER-LBD>  (649) 
0

>  <NR-PPAR-gamma>  (649) 
0

>  <NR-AhR>  (649) 
0

>  <SR-ATAD5>  (649) 
0

>  <SR-p53>  (649) 
0

$$$$
NCGC00183128-01
     RDKit          2D

 58 64  0  0  1  0  0  0  0  0999 V2000
    7.9745   -3.0466    0.0000 C   0  0  0  0  0  0  0  0  0  0  0  0
    7.2690   -4.3080    0.0000 C   0  0  0  0  0  0  0  0  0  0  0  0
    7.9745   -3.9017    0.0000 C   0  0  0  0  0  0  0  0  0  0  0  0
    5.8259   -4.3080    0.0000 C   0  0  0  0  0  0  0  0  0  0  0  0
    6.5634   -3.9017    0.0000 C   0  0  0  0  0  0  0  0  0  0  0  0
    7.2690   -2.6403    0.0000 C   0  0  0  0  0  0  0  0  0  0  0  0
    6.5634   -3.0466    0.0000 C   0  0  0  0  0  0  0  0  0  0  0  0
    5.8259   -5.1310    0.0000 C   0  0  0  0  0  0  0  0  0  0  0  0
    8.7228   -2.6403    0.0000 C   0  0  0  0  0  0  0  0  0  0  0  0
    5.1204   -5.5587    0.0000 C   0  0  0  0  0  0  0  0  0  0  0  0
    9.4176   -1.4003    0.0000 C   0  0  0  0  0  0  0  0  0  0  0  0
    8.7228   -1.8279    0.0000 C   0  0  0  0  0  0  0  0  0  0  0  0
    9.4176   -3.0466    0.0000 C   0  0  0  0  0  0  0  0  0  0  0  0
    2.9183   -6.0290    0.0000 O   0  0  0  0  0  0  0  0  0  0  0  0
    4.4042   -5.1310    0.0000 C   0  0  0  0  0  0  0  0  0  0  0  0
    7.2690   -5.1310    0.0000 C   0  0  0  0  0  0  0  0  0  0  0  0
    9.8987   -0.6734    0.0000 C   0  0  0  0  0  0  0  0  0  0  0  0
    5.1204   -3.9017    0.0000 C   0  0  0  0  0  0  0  0  0  0  0  0
    8.7228   -4.3080    0.0000 C   0  0  0  0  0  0  0  0  0  0  0  0
    6.5634   -5.5587    0.0000 C   0  0  0  0  0  0  0  0  0  0  0  0
    5.8259   -2.6831    0.0000 O   0  0  0  0  0  0  0  0  0  0  0  0
    9.4176   -3.9017    0.0000 C   0  0  0  0  0  0  0  0  0  0  0  0
    4.4042   -4.3080    0.0000 C   0  0  0  0  0  0  0  0  0  0  0  0
   10.1231   -1.8279    0.0000 C   0  0  0  0  0  0  0  0  0  0  0  0
   10.1231   -2.6403    0.0000 C   0  0  0  0  0  0  0  0  0  0  0  0
    9.5031    0.0000    0.0000 O   0  0  0  0  0  0  0  0  0  0  0  0
    7.2797   -3.5704    0.0000 C   0  0  0  0  0  0  0  0  0  0  0  0
    5.8259   -3.4528    0.0000 C   0  0  0  0  0  0  0  0  0  0  0  0
    8.0173   -4.6714    0.0000 C   0  0  0  0  0  0  0  0  0  0  0  0
   10.6897   -0.6734    0.0000 O   0  0  0  0  0  0  0  0  0  0  0  0
    4.7997   -6.2856    0.0000 C   0  0  0  0  0  0  0  0  0  0  0  0
    5.4090   -6.2535    0.0000 C   0  0  0  0  0  0  0  0  0  0  0  0
    8.9259   -0.6734    0.0000 C   0  0  0  0  0  0  0  0  0  0  0  0
    9.4176   -2.1914    0.0000 C   0  0  0  0  0  0  0  0  0  0  0  0
    2.9183   -6.8521    0.0000 C   0  0  0  0  0  0  0  0  0  0  0  0
    2.2021   -7.2690    0.0000 C   0  0  0  0  0  0  0  0  0  0  0  0
    3.6559   -7.2690    0.0000 O   0  0  0  0  0  0  0  0  0  0  0  0
    2.2021   -8.1242    0.0000 C   0  0  0  0  0  0  0  0  0  0  0  0
    3.6559   -8.1242    0.0000 C   0  0  0  0  0  0  0  0  0  0  0  0
    2.9183   -8.5304    0.0000 C   0  0  0  0  0  0  0  0  0  0  0  0
    1.4751   -8.5304    0.0000 O   0  0  0  0  0  0  0  0  0  0  0  0
    2.9183   -9.3749    0.0000 O   0  0  0  0  0  0  0  0  0  0  0  0
    4.3721   -8.5304    0.0000 C   0  0  0  0  0  0  0  0  0  0  0  0
    4.3721   -9.3749    0.0000 O   0  0  0  0  0  0  0  0  0  0  0  0
    5.1204   -8.1242    0.0000 O   0  0  0  0  0  0  0  0  0  0  0  0
    1.4538   -6.8521    0.0000 O   0  0  0  0  0  0  0  0  0  0  0  0
    1.4538   -5.9969    0.0000 C   0  0  0  0  0  0  0  0  0  0  0  0
    0.7269   -5.5907    0.0000 C   0  0  0  0  0  0  0  0  0  0  0  0
    2.1807   -5.5907    0.0000 O   0  0  0  0  0  0  0  0  0  0  0  0
    0.7269   -4.7355    0.0000 C   0  0  0  0  0  0  0  0  0  0  0  0
    2.1807   -4.7355    0.0000 C   0  0  0  0  0  0  0  0  0  0  0  0
    1.4538   -4.3080    0.0000 C   0  0  0  0  0  0  0  0  0  0  0  0
    0.0000   -5.9969    0.0000 O   0  0  0  0  0  0  0  0  0  0  0  0
    0.0000   -4.3080    0.0000 O   0  0  0  0  0  0  0  0  0  0  0  0
    1.4538   -3.4635    0.0000 O   0  0  0  0  0  0  0  0  0  0  0  0
    2.9183   -4.3080    0.0000 C   0  0  0  0  0  0  0  0  0  0  0  0
    2.9183   -3.4635    0.0000 O   0  0  0  0  0  0  0  0  0  0  0  0
    3.6559   -4.7355    0.0000 O   0  0  0  0  0  0  0  0  0  0  0  0
  1  3  1  0
  1  6  2  0
  1  9  1  0
  2  3  1  0
  2 16  1  0
  2 27  1  1
  2  5  1  0
  3 19  1  0
  3 29  1  6
  4  5  1  0
  4  8  1  0
  4 18  1  0
  4 28  1  1
  5  7  1  1
  6  7  1  0
  7 21  2  0
  8 10  1  0
  8 20  1  1
  9 12  1  6
  9 13  1  0
 10 31  1  0
 10 32  1  0
 10 15  1  0
 11 12  1  0
 11 17  1  0
 11 33  1  6
 11 24  1  0
 13 22  1  0
 13 25  1  0
 13 34  1  1
 15 14  1  1
 35 14  1  1
 15 23  1  0
 16 20  1  0
 17 26  2  0
 17 30  1  0
 18 23  1  0
 19 22  1  0
 24 25  1  0
 35 36  1  0
 35 37  1  0
 36 38  1  0
 36 46  1  1
 37 39  1  0
 38 40  1  0
 38 41  1  6
 39 40  1  0
 39 43  1  6
 40 42  1  1
 43 44  1  0
 43 45  2  0
 47 46  1  1
 47 48  1  0
 47 49  1  0
 48 50  1  0
 48 53  1  6
 49 51  1  0
 50 52  1  0
 50 54  1  1
 51 52  1  0
 51 56  1  1
 52 55  1  6
 56 57  1  0
 56 58  2  0
M  END
>  <Formula>  (650) 
C42H62O16

>  <FW>  (650) 
822.9321

>  <DSSTox_CID>  (650) 
27006

>  <NR-AR>  (650) 
1

>  <NR-ER>  (650) 
0

>  <NR-ER-LBD>  (650) 
0

>  <NR-PPAR-gamma>  (650) 
0

>  <NR-AhR>  (650) 
0

>  <SR-ATAD5>  (650) 
0

>  <SR-MMP>  (650) 
0

>  <SR-p53>  (650) 
0

$$$$
NCGC00257329-01
     RDKit          2D

 29 32  0  0  1  0  0  0  0  0999 V2000
    4.3082   -1.4979    0.0000 C   0  0  0  0  0  0  0  0  0  0  0  0
    5.0942   -1.2532    0.0000 C   0  0  0  0  0  0  0  0  0  0  0  0
    2.1801   -3.5371    0.0000 C   0  0  0  0  0  0  0  0  0  0  0  0
    2.1801   -2.7288    0.0000 C   0  0  0  0  0  0  0  0  0  0  0  0
    4.3082   -2.3506    0.0000 C   0  0  0  0  0  0  0  0  0  0  0  0
    3.6112   -2.7288    0.0000 C   0  0  0  0  0  0  0  0  0  0  0  0
    5.5762   -1.9279    0.0000 C   0  0  0  0  0  0  0  0  0  0  0  0
    3.6112   -3.5371    0.0000 C   0  0  0  0  0  0  0  0  0  0  0  0
    2.8845   -2.3506    0.0000 C   0  0  0  0  0  0  0  0  0  0  0  0
    2.8845   -3.9597    0.0000 C   0  0  0  0  0  0  0  0  0  0  0  0
    5.0942   -2.5879    0.0000 C   0  0  0  0  0  0  0  0  0  0  0  0
    1.4608   -3.9597    0.0000 C   0  0  0  0  0  0  0  0  0  0  0  0
    3.6112   -1.0900    0.0000 C   0  0  0  0  0  0  0  0  0  0  0  0
    5.9248   -1.2977    0.0000 O   0  0  0  0  0  0  0  0  0  0  0  0
    2.8845   -1.4979    0.0000 C   0  0  0  0  0  0  0  0  0  0  0  0
    1.4608   -2.3506    0.0000 C   0  0  0  0  0  0  0  0  0  0  0  0
    5.0942   -0.4078    0.0000 C   0  0  0  0  0  0  0  0  0  0  0  0
    6.6440   -0.8824    0.0000 C   0  0  0  0  0  0  0  0  0  0  0  0
    0.7489   -3.5371    0.0000 C   0  0  0  0  0  0  0  0  0  0  0  0
    6.4067   -1.9279    0.0000 C   0  0  0  0  0  0  0  0  0  0  0  0
    6.6440   -0.0222    0.0000 O   0  0  0  0  0  0  0  0  0  0  0  0
    4.3750    0.0000    0.0000 O   0  0  0  0  0  0  0  0  0  0  0  0
    0.0000   -3.9449    0.0000 O   0  0  0  0  0  0  0  0  0  0  0  0
    4.3082   -0.6674    0.0000 C   0  0  0  0  0  0  0  0  0  0  0  0
    0.7489   -2.7288    0.0000 C   0  0  0  0  0  0  0  0  0  0  0  0
    2.1801   -1.8983    0.0000 C   0  0  0  0  0  0  0  0  0  0  0  0
    2.8845   -4.7976    0.0000 C   0  0  0  0  0  0  0  0  0  0  0  0
    7.4152   -1.2383    0.0000 C   0  0  0  0  0  0  0  0  0  0  0  0
    5.8061    0.0000    0.0000 C   0  0  0  0  0  0  0  0  0  0  0  0
  1  2  1  0
  1  5  1  0
  1 13  1  0
  1 24  1  1
  2  7  1  0
  2 14  1  6
  2 17  1  0
  3  4  1  0
  3 12  2  0
  3 10  1  0
  4  9  1  0
  4 16  1  0
  4 26  1  1
  5  6  1  0
  5 11  1  1
  6  8  1  6
  6  9  1  0
  7 20  2  0
  7 11  1  0
  8 10  2  0
  9 15  1  1
 10 27  1  0
 12 19  1  0
 13 15  1  0
 14 18  1  0
 16 25  1  0
 17 22  2  0
 17 29  1  0
 18 21  2  0
 18 28  1  0
 19 25  1  0
 19 23  2  0
M  END
>  <Formula>  (651) 
C25H32O4

>  <FW>  (651) 
396.5192

>  <DSSTox_CID>  (651) 
28158

>  <NR-AR>  (651) 
1

>  <NR-AR-LBD>  (651) 
0

>  <NR-PPAR-gamma>  (651) 
0

>  <SR-ARE>  (651) 
1

>  <SR-ATAD5>  (651) 
0

>  <SR-HSE>  (651) 
0

>  <SR-MMP>  (651) 
0

>  <SR-p53>  (651) 
0

$$$$
NCGC00256415-01
     RDKit          2D

 31 35  0  0  1  0  0  0  0  0999 V2000
    5.1538   -2.1009    0.0000 C   0  0  0  0  0  0  0  0  0  0  0  0
    4.3477   -2.3582    0.0000 C   0  0  0  0  0  0  0  0  0  0  0  0
    5.6426   -2.7441    0.0000 C   0  0  0  0  0  0  0  0  0  0  0  0
    5.6426   -1.4578    0.0000 O   0  0  0  0  0  0  0  0  0  0  0  0
    4.9223   -1.3377    0.0000 C   0  0  0  0  0  0  0  0  0  0  0  0
    4.3477   -3.1386    0.0000 C   0  0  0  0  0  0  0  0  0  0  0  0
    3.6360   -1.9638    0.0000 C   0  0  0  0  0  0  0  0  0  0  0  0
    4.3820   -1.7408    0.0000 C   0  0  0  0  0  0  0  0  0  0  0  0
    5.1538   -3.3872    0.0000 C   0  0  0  0  0  0  0  0  0  0  0  0
    6.4401   -2.4954    0.0000 O   0  0  0  0  0  0  0  0  0  0  0  0
    6.4401   -1.7065    0.0000 C   0  0  0  0  0  0  0  0  0  0  0  0
    5.5053   -0.7547    0.0000 C   0  0  0  0  0  0  0  0  0  0  0  0
    4.1247   -1.1405    0.0000 O   0  0  0  0  0  0  0  0  0  0  0  0
    3.6360   -3.5502    0.0000 C   0  0  0  0  0  0  0  0  0  0  0  0
    2.8985   -2.3582    0.0000 C   0  0  0  0  0  0  0  0  0  0  0  0
    7.1175   -1.2348    0.0000 C   0  0  0  0  0  0  0  0  0  0  0  0
    5.2738    0.0000    0.0000 O   0  0  0  0  0  0  0  0  0  0  0  0
    2.8985   -3.1386    0.0000 C   0  0  0  0  0  0  0  0  0  0  0  0
    3.6360   -4.3391    0.0000 C   0  0  0  0  0  0  0  0  0  0  0  0
    2.1781   -1.9638    0.0000 O   0  0  0  0  0  0  0  0  0  0  0  0
    7.8893   -1.5607    0.0000 C   0  0  0  0  0  0  0  0  0  0  0  0
    2.1781   -3.5502    0.0000 C   0  0  0  0  0  0  0  0  0  0  0  0
    2.8985   -4.7421    0.0000 C   0  0  0  0  0  0  0  0  0  0  0  0
    8.5753   -1.0891    0.0000 C   0  0  0  0  0  0  0  0  0  0  0  0
    2.1781   -4.3391    0.0000 C   0  0  0  0  0  0  0  0  0  0  0  0
    1.4492   -3.1386    0.0000 C   0  0  0  0  0  0  0  0  0  0  0  0
    2.1781   -2.7441    0.0000 C   0  0  0  0  0  0  0  0  0  0  0  0
    1.4492   -4.7421    0.0000 C   0  0  0  0  0  0  0  0  0  0  0  0
    0.7203   -3.5502    0.0000 C   0  0  0  0  0  0  0  0  0  0  0  0
    0.7203   -4.3391    0.0000 C   0  0  0  0  0  0  0  0  0  0  0  0
    0.0000   -4.7421    0.0000 O   0  0  0  0  0  0  0  0  0  0  0  0
  1  2  1  0
  1  3  1  0
  1  4  1  0
  1  5  1  1
  2  6  1  0
  2  7  1  0
  2  8  1  1
  3  9  1  6
  3 10  1  0
  4 11  1  0
  5 12  1  0
  5 13  2  0
  6 14  1  0
  6  9  1  1
  7 15  1  0
 10 11  1  0
 11 16  1  6
 12 17  1  0
 14 18  1  0
 14 19  1  6
 15 20  1  1
 18 15  1  1
 16 21  1  0
 18 22  1  0
 19 23  1  0
 21 24  1  0
 22 25  1  0
 22 26  1  0
 22 27  1  1
 23 25  1  0
 25 28  2  0
 26 29  2  0
 28 30  1  0
 29 30  1  0
 30 31  2  0
M  END
>  <Formula>  (652) 
C25H34O6

>  <FW>  (652) 
430.5339

>  <DSSTox_CID>  (652) 
202

>  <NR-AR>  (652) 
1

>  <NR-AR-LBD>  (652) 
1

>  <NR-ER-LBD>  (652) 
0

>  <SR-ARE>  (652) 
1

>  <SR-ATAD5>  (652) 
0

>  <SR-HSE>  (652) 
0

>  <SR-MMP>  (652) 
0

>  <SR-p53>  (652) 
0

$$$$
NCGC00016824-01
     RDKit          2D

 34 37  0  0  1  0  0  0  0  0999 V2000
    2.1620   -3.5426    0.0000 C   0  0  0  0  0  0  0  0  0  0  0  0
    2.8914   -3.1258    0.0000 C   0  0  0  0  0  0  0  0  0  0  0  0
    4.3153   -2.3009    0.0000 C   0  0  0  0  0  0  0  0  0  0  0  0
    2.1620   -4.3674    0.0000 C   0  0  0  0  0  0  0  0  0  0  0  0
    4.3153   -3.1258    0.0000 C   0  0  0  0  0  0  0  0  0  0  0  0
    3.6033   -3.5426    0.0000 C   0  0  0  0  0  0  0  0  0  0  0  0
    2.8914   -2.3009    0.0000 C   0  0  0  0  0  0  0  0  0  0  0  0
    1.4500   -3.1258    0.0000 C   0  0  0  0  0  0  0  0  0  0  0  0
    5.0794   -2.0405    0.0000 C   0  0  0  0  0  0  0  0  0  0  0  0
    3.6033   -1.8754    0.0000 C   0  0  0  0  0  0  0  0  0  0  0  0
    5.0794   -3.3602    0.0000 C   0  0  0  0  0  0  0  0  0  0  0  0
    5.5743   -2.7003    0.0000 C   0  0  0  0  0  0  0  0  0  0  0  0
    3.6033   -4.3674    0.0000 C   0  0  0  0  0  0  0  0  0  0  0  0
    2.8914   -4.7842    0.0000 C   0  0  0  0  0  0  0  0  0  0  0  0
    1.4500   -4.7842    0.0000 C   0  0  0  0  0  0  0  0  0  0  0  0
    0.7207   -3.5426    0.0000 C   0  0  0  0  0  0  0  0  0  0  0  0
    0.7207   -4.3674    0.0000 C   0  0  0  0  0  0  0  0  0  0  0  0
    5.0794   -1.2850    0.0000 C   0  0  0  0  0  0  0  0  0  0  0  0
    2.8914   -3.9419    0.0000 Cl  0  0  0  0  0  0  0  0  0  0  0  0
    4.4542   -0.7380    0.0000 O   0  0  0  0  0  0  0  0  0  0  0  0
    0.0000   -4.7928    0.0000 O   0  0  0  0  0  0  0  0  0  0  0  0
    2.1620   -2.6048    0.0000 C   0  0  0  0  0  0  0  0  0  0  0  0
    4.3153   -1.5195    0.0000 C   0  0  0  0  0  0  0  0  0  0  0  0
    2.1620   -1.8581    0.0000 O   0  0  0  0  0  0  0  0  0  0  0  0
    2.8914   -5.5135    0.0000 F   0  0  0  0  0  0  0  0  0  0  0  0
    6.4166   -2.7003    0.0000 C   0  0  0  0  0  0  0  0  0  0  0  0
    6.5033   -1.2590    0.0000 O   0  0  0  0  0  0  0  0  0  0  0  0
    5.8088   -0.8335    0.0000 C   0  0  0  0  0  0  0  0  0  0  0  0
    7.2414   -0.8335    0.0000 C   0  0  0  0  0  0  0  0  0  0  0  0
    7.9620   -1.2590    0.0000 C   0  0  0  0  0  0  0  0  0  0  0  0
    7.2414    0.0000    0.0000 O   0  0  0  0  0  0  0  0  0  0  0  0
    8.3788   -0.5297    0.0000 C   0  0  0  0  0  0  0  0  0  0  0  0
    7.5366   -1.9970    0.0000 C   0  0  0  0  0  0  0  0  0  0  0  0
    8.6827   -1.6758    0.0000 C   0  0  0  0  0  0  0  0  0  0  0  0
  1  2  1  0
  1  4  1  0
  1  8  1  0
  1 22  1  1
  2  6  1  0
  2  7  1  0
  2 19  1  6
  3 10  1  0
  3  9  1  0
  3 23  1  1
  3  5  1  0
  4 14  1  0
  4 15  2  0
  5  6  1  0
  5 11  1  1
  6 13  1  6
  7 10  1  0
  7 24  1  1
  8 16  2  0
  9 18  1  1
  9 12  1  0
 11 12  1  0
 12 26  1  6
 13 14  1  0
 14 25  1  6
 15 17  1  0
 16 17  1  0
 17 21  2  0
 18 20  2  0
 18 28  1  0
 27 28  1  0
 27 29  1  0
 29 30  1  0
 29 31  2  0
 30 32  1  0
 30 33  1  0
 30 34  1  0
M  END
>  <Formula>  (653) 
C27H36ClFO5

>  <FW>  (653) 
495.0231

>  <DSSTox_CID>  (653) 
25460

>  <NR-AR>  (653) 
1

>  <NR-AR-LBD>  (653) 
1

>  <NR-ER>  (653) 
0

>  <NR-ER-LBD>  (653) 
0

>  <NR-PPAR-gamma>  (653) 
0

>  <NR-AhR>  (653) 
0

>  <SR-ATAD5>  (653) 
0

>  <SR-MMP>  (653) 
0

>  <SR-p53>  (653) 
0

$$$$
NCGC00159503-02
     RDKit          2D

 30 33  0  0  1  0  0  0  0  0999 V2000
    2.1858   -3.3766    0.0000 C   0  0  0  0  0  0  0  0  0  0  0  0
    4.3324   -2.1153    0.0000 C   0  0  0  0  0  0  0  0  0  0  0  0
    2.1858   -4.1914    0.0000 C   0  0  0  0  0  0  0  0  0  0  0  0
    5.1237   -1.8724    0.0000 C   0  0  0  0  0  0  0  0  0  0  0  0
    2.9066   -2.9614    0.0000 C   0  0  0  0  0  0  0  0  0  0  0  0
    3.6194   -3.3766    0.0000 C   0  0  0  0  0  0  0  0  0  0  0  0
    4.3324   -2.9692    0.0000 C   0  0  0  0  0  0  0  0  0  0  0  0
    1.4572   -2.9614    0.0000 C   0  0  0  0  0  0  0  0  0  0  0  0
    3.6194   -1.7235    0.0000 C   0  0  0  0  0  0  0  0  0  0  0  0
    2.9066   -2.1153    0.0000 C   0  0  0  0  0  0  0  0  0  0  0  0
    3.6194   -4.1757    0.0000 C   0  0  0  0  0  0  0  0  0  0  0  0
    1.4572   -4.5910    0.0000 C   0  0  0  0  0  0  0  0  0  0  0  0
    2.9066   -4.5910    0.0000 C   0  0  0  0  0  0  0  0  0  0  0  0
    5.1315   -1.0498    0.0000 C   0  0  0  0  0  0  0  0  0  0  0  0
    5.5859   -2.5305    0.0000 C   0  0  0  0  0  0  0  0  0  0  0  0
    5.1237   -3.2278    0.0000 C   0  0  0  0  0  0  0  0  0  0  0  0
    0.7443   -3.3766    0.0000 C   0  0  0  0  0  0  0  0  0  0  0  0
    0.7443   -4.1757    0.0000 C   0  0  0  0  0  0  0  0  0  0  0  0
    7.2232   -0.7521    0.0000 C   0  0  0  0  0  0  0  0  0  0  0  0
    5.8523   -0.6424    0.0000 C   0  0  0  0  0  0  0  0  0  0  0  0
    4.4186   -0.6032    0.0000 O   0  0  0  0  0  0  0  0  0  0  0  0
    6.5417   -1.0890    0.0000 O   0  0  0  0  0  0  0  0  0  0  0  0
    7.2232    0.0000    0.0000 O   0  0  0  0  0  0  0  0  0  0  0  0
    0.0000   -4.5831    0.0000 O   0  0  0  0  0  0  0  0  0  0  0  0
    5.9541   -1.8803    0.0000 O   0  0  0  0  0  0  0  0  0  0  0  0
    2.1858   -2.5226    0.0000 C   0  0  0  0  0  0  0  0  0  0  0  0
    4.3324   -1.3083    0.0000 C   0  0  0  0  0  0  0  0  0  0  0  0
    2.1701   -1.7157    0.0000 O   0  0  0  0  0  0  0  0  0  0  0  0
    2.9066   -5.4214    0.0000 C   0  0  0  0  0  0  0  0  0  0  0  0
    7.8344   -1.1517    0.0000 C   0  0  0  0  0  0  0  0  0  0  0  0
  1  3  1  0
  1  5  1  0
  1  8  1  0
  1 26  1  1
  2  9  1  0
  2  4  1  0
  2 27  1  1
  2  7  1  0
  3 12  2  0
  3 13  1  0
  4 14  1  0
  4 25  1  6
  4 15  1  0
  5  6  1  0
  5 10  1  1
  6  7  1  0
  6 11  1  6
  7 16  1  1
  8 17  2  0
  9 10  1  0
 10 28  1  1
 11 13  1  0
 12 18  1  0
 13 29  1  6
 14 20  1  0
 14 21  2  0
 15 16  1  0
 17 18  1  0
 18 24  2  0
 19 22  1  0
 19 23  2  0
 19 30  1  0
 20 22  1  0
M  END
>  <Formula>  (654) 
C24H32O6

>  <FW>  (654) 
416.5073

>  <DSSTox_CID>  (654) 
3302

>  <NR-AR>  (654) 
1

>  <NR-AR-LBD>  (654) 
1

>  <NR-ER>  (654) 
1

>  <NR-ER-LBD>  (654) 
0

>  <NR-PPAR-gamma>  (654) 
0

>  <NR-AhR>  (654) 
0

>  <SR-ATAD5>  (654) 
0

>  <SR-MMP>  (654) 
0

>  <SR-p53>  (654) 
0

$$$$
NCGC00164402-01
     RDKit          2D

 28 31  0  0  1  0  0  0  0  0999 V2000
    4.3041   -2.0593    0.0000 C   0  0  0  0  0  0  0  0  0  0  0  0
    2.8779   -2.8907    0.0000 C   0  0  0  0  0  0  0  0  0  0  0  0
    2.1617   -3.3000    0.0000 C   0  0  0  0  0  0  0  0  0  0  0  0
    4.3041   -2.8907    0.0000 C   0  0  0  0  0  0  0  0  0  0  0  0
    3.5878   -3.3000    0.0000 C   0  0  0  0  0  0  0  0  0  0  0  0
    5.0908   -1.8035    0.0000 C   0  0  0  0  0  0  0  0  0  0  0  0
    2.1617   -4.1314    0.0000 C   0  0  0  0  0  0  0  0  0  0  0  0
    2.8779   -2.0593    0.0000 C   0  0  0  0  0  0  0  0  0  0  0  0
    3.5878   -1.6564    0.0000 C   0  0  0  0  0  0  0  0  0  0  0  0
    5.5768   -2.4750    0.0000 C   0  0  0  0  0  0  0  0  0  0  0  0
    1.4581   -2.8907    0.0000 C   0  0  0  0  0  0  0  0  0  0  0  0
    5.0908   -3.1338    0.0000 C   0  0  0  0  0  0  0  0  0  0  0  0
    1.4581   -4.5471    0.0000 C   0  0  0  0  0  0  0  0  0  0  0  0
    5.3082   -1.0105    0.0000 C   0  0  0  0  0  0  0  0  0  0  0  0
    3.5878   -4.1314    0.0000 C   0  0  0  0  0  0  0  0  0  0  0  0
    0.7418   -3.3000    0.0000 C   0  0  0  0  0  0  0  0  0  0  0  0
    0.7418   -4.1314    0.0000 C   0  0  0  0  0  0  0  0  0  0  0  0
    2.8779   -4.5471    0.0000 C   0  0  0  0  0  0  0  0  0  0  0  0
    2.8651   -3.5750    0.0000 Cl  0  0  0  0  0  0  0  0  0  0  0  0
    4.7198   -0.4157    0.0000 O   0  0  0  0  0  0  0  0  0  0  0  0
    0.0000   -4.5471    0.0000 O   0  0  0  0  0  0  0  0  0  0  0  0
    5.9093   -1.8035    0.0000 O   0  0  0  0  0  0  0  0  0  0  0  0
    4.3041   -1.2279    0.0000 C   0  0  0  0  0  0  0  0  0  0  0  0
    2.1489   -1.6308    0.0000 O   0  0  0  0  0  0  0  0  0  0  0  0
    2.1617   -2.4750    0.0000 C   0  0  0  0  0  0  0  0  0  0  0  0
    6.3954   -2.4750    0.0000 C   0  0  0  0  0  0  0  0  0  0  0  0
    6.0948   -0.7994    0.0000 C   0  0  0  0  0  0  0  0  0  0  0  0
    6.3123    0.0000    0.0000 O   0  0  0  0  0  0  0  0  0  0  0  0
  1  4  1  0
  1  6  1  0
  1  9  1  0
  1 23  1  1
  2  8  1  0
  2  3  1  0
  2 19  1  6
  2  5  1  0
  3  7  1  0
  3 11  1  0
  3 25  1  1
  4  5  1  0
  4 12  1  1
  5 15  1  6
  6 10  1  0
  6 14  1  0
  6 22  1  6
  7 13  2  0
  7 18  1  0
  8  9  1  0
  8 24  1  1
 10 26  1  1
 10 12  1  0
 11 16  2  0
 13 17  1  0
 14 20  2  0
 14 27  1  0
 15 18  1  0
 16 17  1  0
 17 21  2  0
 27 28  1  0
M  END
>  <Formula>  (655) 
C22H29ClO5

>  <FW>  (655) 
408.9157

>  <DSSTox_CID>  (655) 
20750

>  <NR-AR>  (655) 
1

>  <NR-AR-LBD>  (655) 
1

>  <NR-ER>  (655) 
0

>  <NR-ER-LBD>  (655) 
0

>  <NR-PPAR-gamma>  (655) 
0

>  <NR-AhR>  (655) 
0

>  <SR-ATAD5>  (655) 
0

>  <SR-MMP>  (655) 
0

>  <SR-p53>  (655) 
0

$$$$
NCGC00164401-01
     RDKit          2D

 28 31  0  0  1  0  0  0  0  0999 V2000
    4.3068   -1.6544    0.0000 C   0  0  0  0  0  0  0  0  0  0  0  0
    2.8802   -2.4850    0.0000 C   0  0  0  0  0  0  0  0  0  0  0  0
    2.1635   -2.8935    0.0000 C   0  0  0  0  0  0  0  0  0  0  0  0
    4.3068   -2.4850    0.0000 C   0  0  0  0  0  0  0  0  0  0  0  0
    3.5901   -2.8935    0.0000 C   0  0  0  0  0  0  0  0  0  0  0  0
    5.0972   -1.3932    0.0000 C   0  0  0  0  0  0  0  0  0  0  0  0
    2.1635   -3.7241    0.0000 C   0  0  0  0  0  0  0  0  0  0  0  0
    2.8802   -1.6544    0.0000 C   0  0  0  0  0  0  0  0  0  0  0  0
    3.5901   -1.2459    0.0000 C   0  0  0  0  0  0  0  0  0  0  0  0
    5.5862   -2.0697    0.0000 C   0  0  0  0  0  0  0  0  0  0  0  0
    1.4535   -2.4850    0.0000 C   0  0  0  0  0  0  0  0  0  0  0  0
    5.0972   -2.7261    0.0000 C   0  0  0  0  0  0  0  0  0  0  0  0
    1.4535   -4.1394    0.0000 C   0  0  0  0  0  0  0  0  0  0  0  0
    5.3182   -0.5961    0.0000 C   0  0  0  0  0  0  0  0  0  0  0  0
    3.5901   -3.7241    0.0000 C   0  0  0  0  0  0  0  0  0  0  0  0
    0.7368   -2.8935    0.0000 C   0  0  0  0  0  0  0  0  0  0  0  0
    0.7368   -3.7241    0.0000 C   0  0  0  0  0  0  0  0  0  0  0  0
    2.8802   -4.1394    0.0000 C   0  0  0  0  0  0  0  0  0  0  0  0
    2.8735   -3.1749    0.0000 F   0  0  0  0  0  0  0  0  0  0  0  0
    4.7355    0.0000    0.0000 O   0  0  0  0  0  0  0  0  0  0  0  0
    0.0000   -4.1461    0.0000 O   0  0  0  0  0  0  0  0  0  0  0  0
    5.9211   -1.3932    0.0000 O   0  0  0  0  0  0  0  0  0  0  0  0
    4.3068   -0.8105    0.0000 C   0  0  0  0  0  0  0  0  0  0  0  0
    2.1500   -1.2257    0.0000 O   0  0  0  0  0  0  0  0  0  0  0  0
    2.1635   -2.0697    0.0000 C   0  0  0  0  0  0  0  0  0  0  0  0
    6.4100   -2.0630    0.0000 C   0  0  0  0  0  0  0  0  0  0  0  0
    6.1153   -0.3885    0.0000 C   0  0  0  0  0  0  0  0  0  0  0  0
    6.6980   -0.9846    0.0000 O   0  0  0  0  0  0  0  0  0  0  0  0
  1  4  1  0
  1  6  1  0
  1  9  1  0
  1 23  1  1
  2  8  1  0
  2  3  1  0
  2 19  1  6
  2  5  1  0
  3  7  1  0
  3 11  1  0
  3 25  1  1
  4  5  1  0
  4 12  1  1
  5 15  1  6
  6 10  1  0
  6 14  1  0
  6 22  1  6
  7 13  2  0
  7 18  1  0
  8  9  1  0
  8 24  1  1
 10 26  1  1
 10 12  1  0
 11 16  2  0
 13 17  1  0
 14 20  2  0
 14 27  1  0
 15 18  1  0
 16 17  1  0
 17 21  2  0
 27 28  1  0
M  END
>  <Formula>  (656) 
C22H29FO5

>  <FW>  (656) 
392.4611

>  <DSSTox_CID>  (656) 
2667

>  <NR-AR>  (656) 
1

>  <NR-AR-LBD>  (656) 
1

>  <NR-ER>  (656) 
0

>  <NR-ER-LBD>  (656) 
0

>  <NR-PPAR-gamma>  (656) 
0

>  <NR-AhR>  (656) 
0

>  <SR-ATAD5>  (656) 
0

>  <SR-MMP>  (656) 
0

>  <SR-p53>  (656) 
0

$$$$
NCGC00183028-01
     RDKit          2D

 27 30  0  0  1  0  0  0  0  0999 V2000
    4.3204   -1.6210    0.0000 C   0  0  0  0  0  0  0  0  0  0  0  0
    2.8803   -2.4449    0.0000 C   0  0  0  0  0  0  0  0  0  0  0  0
    2.1636   -2.8534    0.0000 C   0  0  0  0  0  0  0  0  0  0  0  0
    3.5970   -2.8601    0.0000 C   0  0  0  0  0  0  0  0  0  0  0  0
    5.1107   -1.3664    0.0000 C   0  0  0  0  0  0  0  0  0  0  0  0
    4.3204   -2.4516    0.0000 C   0  0  0  0  0  0  0  0  0  0  0  0
    2.1636   -3.6840    0.0000 C   0  0  0  0  0  0  0  0  0  0  0  0
    2.8803   -1.6210    0.0000 C   0  0  0  0  0  0  0  0  0  0  0  0
    3.5970   -1.2124    0.0000 C   0  0  0  0  0  0  0  0  0  0  0  0
    1.4535   -4.0926    0.0000 C   0  0  0  0  0  0  0  0  0  0  0  0
    5.3385   -0.5827    0.0000 C   0  0  0  0  0  0  0  0  0  0  0  0
    5.5863   -2.0161    0.0000 C   0  0  0  0  0  0  0  0  0  0  0  0
    5.1107   -2.6994    0.0000 C   0  0  0  0  0  0  0  0  0  0  0  0
    3.5970   -3.6840    0.0000 C   0  0  0  0  0  0  0  0  0  0  0  0
    1.4535   -2.4449    0.0000 C   0  0  0  0  0  0  0  0  0  0  0  0
    2.8803   -4.0926    0.0000 C   0  0  0  0  0  0  0  0  0  0  0  0
    0.7234   -3.6773    0.0000 C   0  0  0  0  0  0  0  0  0  0  0  0
    2.8601   -3.2084    0.0000 F   0  0  0  0  0  0  0  0  0  0  0  0
    4.7624    0.0000    0.0000 O   0  0  0  0  0  0  0  0  0  0  0  0
    0.0000   -4.0859    0.0000 O   0  0  0  0  0  0  0  0  0  0  0  0
    5.9213   -1.4602    0.0000 O   0  0  0  0  0  0  0  0  0  0  0  0
    4.3204   -0.7904    0.0000 C   0  0  0  0  0  0  0  0  0  0  0  0
    0.7234   -2.8601    0.0000 C   0  0  0  0  0  0  0  0  0  0  0  0
    2.1434   -1.1990    0.0000 O   0  0  0  0  0  0  0  0  0  0  0  0
    2.1636   -2.0161    0.0000 C   0  0  0  0  0  0  0  0  0  0  0  0
    6.1088   -0.3751    0.0000 C   0  0  0  0  0  0  0  0  0  0  0  0
    6.6983   -0.9646    0.0000 O   0  0  0  0  0  0  0  0  0  0  0  0
  1  5  1  0
  1  6  1  0
  1  9  1  0
  1 22  1  1
  2  8  1  0
  2  3  1  0
  2 18  1  6
  2  4  1  0
  3  7  1  0
  3 15  1  0
  3 25  1  1
  4  6  1  0
  4 14  1  6
  5 11  1  0
  5 12  1  0
  5 21  1  6
  6 13  1  1
  7 10  2  0
  7 16  1  0
  8  9  1  0
  8 24  1  1
 10 17  1  0
 11 19  2  0
 11 26  1  0
 12 13  1  0
 14 16  1  0
 15 23  1  0
 17 23  1  0
 17 20  2  0
 26 27  1  0
M  END
>  <Formula>  (657) 
C21H29FO5

>  <FW>  (657) 
380.4504

>  <DSSTox_CID>  (657) 
3061

>  <NR-AR>  (657) 
1

>  <NR-AR-LBD>  (657) 
1

>  <NR-ER>  (657) 
0

>  <NR-ER-LBD>  (657) 
0

>  <NR-PPAR-gamma>  (657) 
0

>  <NR-AhR>  (657) 
0

>  <SR-ATAD5>  (657) 
0

>  <SR-MMP>  (657) 
0

>  <SR-p53>  (657) 
0

$$$$
NCGC00095078-01
     RDKit          2D

 32 35  0  0  1  0  0  0  0  0999 V2000
    4.2932   -1.4898    0.0000 C   0  0  0  0  0  0  0  0  0  0  0  0
    2.8755   -2.2988    0.0000 C   0  0  0  0  0  0  0  0  0  0  0  0
    5.0622   -1.2575    0.0000 C   0  0  0  0  0  0  0  0  0  0  0  0
    2.1547   -2.7153    0.0000 C   0  0  0  0  0  0  0  0  0  0  0  0
    4.2932   -2.2988    0.0000 C   0  0  0  0  0  0  0  0  0  0  0  0
    3.5884   -2.7153    0.0000 C   0  0  0  0  0  0  0  0  0  0  0  0
    2.1547   -3.5403    0.0000 C   0  0  0  0  0  0  0  0  0  0  0  0
    2.8755   -1.4898    0.0000 C   0  0  0  0  0  0  0  0  0  0  0  0
    3.5884   -1.0733    0.0000 C   0  0  0  0  0  0  0  0  0  0  0  0
    5.5428   -1.8983    0.0000 C   0  0  0  0  0  0  0  0  0  0  0  0
    1.4498   -2.2988    0.0000 C   0  0  0  0  0  0  0  0  0  0  0  0
    5.0622   -2.5551    0.0000 C   0  0  0  0  0  0  0  0  0  0  0  0
    1.4498   -3.9488    0.0000 C   0  0  0  0  0  0  0  0  0  0  0  0
    5.0622   -0.4165    0.0000 C   0  0  0  0  0  0  0  0  0  0  0  0
    5.8792   -1.3216    0.0000 O   0  0  0  0  0  0  0  0  0  0  0  0
    3.5884   -3.5403    0.0000 C   0  0  0  0  0  0  0  0  0  0  0  0
    0.7289   -2.7153    0.0000 C   0  0  0  0  0  0  0  0  0  0  0  0
    0.7289   -3.5403    0.0000 C   0  0  0  0  0  0  0  0  0  0  0  0
    6.6001   -0.8971    0.0000 C   0  0  0  0  0  0  0  0  0  0  0  0
    2.8755   -3.9488    0.0000 C   0  0  0  0  0  0  0  0  0  0  0  0
    2.8755   -3.1238    0.0000 F   0  0  0  0  0  0  0  0  0  0  0  0
    5.7670    0.0000    0.0000 O   0  0  0  0  0  0  0  0  0  0  0  0
    6.6001   -0.0641    0.0000 O   0  0  0  0  0  0  0  0  0  0  0  0
    0.0000   -3.9568    0.0000 O   0  0  0  0  0  0  0  0  0  0  0  0
    4.2932   -0.6488    0.0000 C   0  0  0  0  0  0  0  0  0  0  0  0
    2.1386   -1.0733    0.0000 O   0  0  0  0  0  0  0  0  0  0  0  0
    2.1547   -1.9063    0.0000 C   0  0  0  0  0  0  0  0  0  0  0  0
    4.3493    0.0000    0.0000 C   0  0  0  0  0  0  0  0  0  0  0  0
    3.6604   -0.4165    0.0000 Cl  0  0  0  0  0  0  0  0  0  0  0  0
    6.3678   -1.8983    0.0000 C   0  0  0  0  0  0  0  0  0  0  0  0
    7.3129   -1.3216    0.0000 C   0  0  0  0  0  0  0  0  0  0  0  0
    8.0098   -0.8891    0.0000 C   0  0  0  0  0  0  0  0  0  0  0  0
  1  3  1  0
  1  5  1  0
  1  9  1  0
  1 25  1  1
  2  8  1  0
  2  4  1  0
  2 21  1  6
  2  6  1  0
  3 10  1  0
  3 14  1  0
  3 15  1  6
  4  7  1  0
  4 11  1  0
  4 27  1  1
  5  6  1  0
  5 12  1  1
  6 16  1  6
  7 13  2  0
  7 20  1  0
  8  9  1  0
  8 26  1  1
 10 30  1  1
 10 12  1  0
 11 17  2  0
 13 18  1  0
 14 22  2  0
 14 28  1  0
 15 19  1  0
 16 20  1  0
 17 18  1  0
 18 24  2  0
 19 23  2  0
 19 31  1  0
 28 29  1  0
 31 32  1  0
M  END
>  <Formula>  (658) 
C25H32ClFO5

>  <FW>  (658) 
466.9700

>  <DSSTox_CID>  (658) 
25907

>  <NR-AR>  (658) 
1

>  <NR-AR-LBD>  (658) 
1

>  <NR-ER>  (658) 
0

>  <NR-ER-LBD>  (658) 
0

>  <NR-PPAR-gamma>  (658) 
0

>  <NR-AhR>  (658) 
1

>  <SR-ATAD5>  (658) 
0

>  <SR-MMP>  (658) 
1

>  <SR-p53>  (658) 
0

$$$$
NCGC00181018-01
     RDKit          2D

 28 31  0  0  1  0  0  0  0  0999 V2000
    2.8914   -3.5906    0.0000 C   0  0  0  0  0  0  0  0  0  0  0  0
    4.3371   -2.7892    0.0000 C   0  0  0  0  0  0  0  0  0  0  0  0
    2.1685   -3.9835    0.0000 C   0  0  0  0  0  0  0  0  0  0  0  0
    5.1149   -2.5378    0.0000 C   0  0  0  0  0  0  0  0  0  0  0  0
    2.1685   -4.8085    0.0000 C   0  0  0  0  0  0  0  0  0  0  0  0
    4.3371   -3.6142    0.0000 C   0  0  0  0  0  0  0  0  0  0  0  0
    3.6064   -4.0071    0.0000 C   0  0  0  0  0  0  0  0  0  0  0  0
    2.8914   -2.7657    0.0000 C   0  0  0  0  0  0  0  0  0  0  0  0
    3.6064   -2.3571    0.0000 C   0  0  0  0  0  0  0  0  0  0  0  0
    5.4213   -1.7678    0.0000 C   0  0  0  0  0  0  0  0  0  0  0  0
    1.4535   -5.2092    0.0000 C   0  0  0  0  0  0  0  0  0  0  0  0
    5.6099   -3.2135    0.0000 C   0  0  0  0  0  0  0  0  0  0  0  0
    5.1306   -3.8814    0.0000 C   0  0  0  0  0  0  0  0  0  0  0  0
    1.4535   -3.5592    0.0000 C   0  0  0  0  0  0  0  0  0  0  0  0
    3.6064   -4.8321    0.0000 C   0  0  0  0  0  0  0  0  0  0  0  0
    2.8914   -5.2328    0.0000 C   0  0  0  0  0  0  0  0  0  0  0  0
    0.7228   -4.7849    0.0000 C   0  0  0  0  0  0  0  0  0  0  0  0
    7.3385   -0.7778    0.0000 C   0  0  0  0  0  0  0  0  0  0  0  0
    6.2228   -1.6500    0.0000 C   0  0  0  0  0  0  0  0  0  0  0  0
    4.9106   -1.1235    0.0000 O   0  0  0  0  0  0  0  0  0  0  0  0
    6.5213   -0.8878    0.0000 O   0  0  0  0  0  0  0  0  0  0  0  0
    7.6370    0.0000    0.0000 O   0  0  0  0  0  0  0  0  0  0  0  0
    0.0000   -5.1856    0.0000 O   0  0  0  0  0  0  0  0  0  0  0  0
    6.1992   -2.5378    0.0000 O   0  0  0  0  0  0  0  0  0  0  0  0
    0.7385   -3.9599    0.0000 C   0  0  0  0  0  0  0  0  0  0  0  0
    4.2978   -1.9485    0.0000 C   0  0  0  0  0  0  0  0  0  0  0  0
    2.1685   -3.1664    0.0000 C   0  0  0  0  0  0  0  0  0  0  0  0
    7.8570   -1.4222    0.0000 C   0  0  0  0  0  0  0  0  0  0  0  0
  1  3  1  0
  1  7  1  0
  1  8  2  0
  2  4  1  0
  2 26  1  1
  2  6  1  0
  2  9  1  0
  3  5  1  0
  3 14  1  0
  3 27  1  1
  4 10  1  0
  4 24  1  6
  4 12  1  0
  5 11  2  0
  5 16  1  0
  6  7  1  0
  6 13  1  1
  7 15  1  6
  8  9  1  0
 10 19  1  0
 10 20  2  0
 11 17  1  0
 12 13  1  0
 14 25  1  0
 15 16  1  0
 17 25  1  0
 17 23  2  0
 18 21  1  0
 18 22  2  0
 18 28  1  0
 19 21  1  0
M  END
>  <Formula>  (659) 
C23H30O5

>  <FW>  (659) 
386.4813

>  <DSSTox_CID>  (659) 
26805

>  <NR-Aromatase>  (659) 
0

>  <NR-AR>  (659) 
1

>  <NR-AR-LBD>  (659) 
1

>  <NR-ER>  (659) 
1

>  <NR-ER-LBD>  (659) 
0

>  <NR-PPAR-gamma>  (659) 
0

>  <NR-AhR>  (659) 
0

>  <SR-ATAD5>  (659) 
0

>  <SR-MMP>  (659) 
0

>  <SR-p53>  (659) 
0

$$$$
NCGC00256631-01
     RDKit          2D

 27 30  0  0  1  0  0  0  0  0999 V2000
    2.1571   -2.8843    0.0000 C   0  0  0  0  0  0  0  0  0  0  0  0
    2.8660   -2.4749    0.0000 C   0  0  0  0  0  0  0  0  0  0  0  0
    4.3021   -1.6560    0.0000 C   0  0  0  0  0  0  0  0  0  0  0  0
    2.1571   -3.7154    0.0000 C   0  0  0  0  0  0  0  0  0  0  0  0
    3.5871   -2.8843    0.0000 C   0  0  0  0  0  0  0  0  0  0  0  0
    5.0843   -1.3872    0.0000 C   0  0  0  0  0  0  0  0  0  0  0  0
    4.3021   -2.4749    0.0000 C   0  0  0  0  0  0  0  0  0  0  0  0
    2.8660   -1.6560    0.0000 C   0  0  0  0  0  0  0  0  0  0  0  0
    1.4605   -2.4749    0.0000 C   0  0  0  0  0  0  0  0  0  0  0  0
    3.5871   -1.2466    0.0000 C   0  0  0  0  0  0  0  0  0  0  0  0
    3.5871   -3.7154    0.0000 C   0  0  0  0  0  0  0  0  0  0  0  0
    1.4605   -4.1249    0.0000 C   0  0  0  0  0  0  0  0  0  0  0  0
    2.8660   -4.1249    0.0000 C   0  0  0  0  0  0  0  0  0  0  0  0
    5.5793   -2.0655    0.0000 C   0  0  0  0  0  0  0  0  0  0  0  0
    5.0843   -2.7255    0.0000 C   0  0  0  0  0  0  0  0  0  0  0  0
    0.7394   -2.8843    0.0000 C   0  0  0  0  0  0  0  0  0  0  0  0
    5.3104   -0.5989    0.0000 C   0  0  0  0  0  0  0  0  0  0  0  0
    0.7394   -3.7154    0.0000 C   0  0  0  0  0  0  0  0  0  0  0  0
    2.8660   -3.1838    0.0000 F   0  0  0  0  0  0  0  0  0  0  0  0
    4.7360    0.0000    0.0000 O   0  0  0  0  0  0  0  0  0  0  0  0
    0.0000   -4.1432    0.0000 O   0  0  0  0  0  0  0  0  0  0  0  0
    5.9215   -1.3872    0.0000 O   0  0  0  0  0  0  0  0  0  0  0  0
    2.1571   -2.0655    0.0000 C   0  0  0  0  0  0  0  0  0  0  0  0
    4.3021   -0.8189    0.0000 C   0  0  0  0  0  0  0  0  0  0  0  0
    2.1449   -1.2283    0.0000 O   0  0  0  0  0  0  0  0  0  0  0  0
    2.8783   -4.7726    0.0000 C   0  0  0  0  0  0  0  0  0  0  0  0
    6.1109   -0.3911    0.0000 C   0  0  0  0  0  0  0  0  0  0  0  0
  1  2  1  0
  1  4  1  0
  1  9  1  0
  1 23  1  1
  2  5  1  0
  2  8  1  0
  2 19  1  6
  3 10  1  0
  3  6  1  0
  3 24  1  1
  3  7  1  0
  4 12  2  0
  4 13  1  0
  5  7  1  0
  5 11  1  6
  6 17  1  0
  6 22  1  6
  6 14  1  0
  7 15  1  1
  8 10  1  0
  8 25  1  1
  9 16  2  0
 11 13  1  0
 12 18  1  0
 13 26  1  6
 14 15  1  0
 16 18  1  0
 17 20  2  0
 17 27  1  0
 18 21  2  0
M  END
>  <Formula>  (660) 
C22H29FO4

>  <FW>  (660) 
376.4617

>  <DSSTox_CID>  (660) 
27435

>  <NR-AR>  (660) 
1

>  <NR-AR-LBD>  (660) 
1

>  <NR-ER>  (660) 
0

>  <NR-ER-LBD>  (660) 
0

>  <NR-AhR>  (660) 
0

>  <SR-ARE>  (660) 
0

>  <SR-ATAD5>  (660) 
0

>  <SR-HSE>  (660) 
0

>  <SR-p53>  (660) 
0

$$$$
NCGC00256717-01
     RDKit          2D

 34 35  0  0  1  0  0  0  0  0999 V2000
    6.0102    0.0000    0.0000 Na  0  0  0  0  0 15  0  0  0  0  0  0
    8.4177   -1.4899    0.0000 Na  0  0  0  0  0 15  0  0  0  0  0  0
    4.3098   -2.2223    0.0000 C   0  0  0  0  0  0  0  0  0  0  0  0
    2.8873   -3.0556    0.0000 C   0  0  0  0  0  0  0  0  0  0  0  0
    2.1633   -3.4513    0.0000 C   0  0  0  0  0  0  0  0  0  0  0  0
    4.3098   -3.0556    0.0000 C   0  0  0  0  0  0  0  0  0  0  0  0
    3.5943   -3.4513    0.0000 C   0  0  0  0  0  0  0  0  0  0  0  0
    5.1179   -1.9781    0.0000 C   0  0  0  0  0  0  0  0  0  0  0  0
    2.1633   -4.2930    0.0000 C   0  0  0  0  0  0  0  0  0  0  0  0
    2.8873   -2.2223    0.0000 C   0  0  0  0  0  0  0  0  0  0  0  0
    3.5943   -1.8266    0.0000 C   0  0  0  0  0  0  0  0  0  0  0  0
    5.5893   -2.6347    0.0000 C   0  0  0  0  0  0  0  0  0  0  0  0
    1.4646   -3.0556    0.0000 C   0  0  0  0  0  0  0  0  0  0  0  0
    5.1011   -3.3081    0.0000 C   0  0  0  0  0  0  0  0  0  0  0  0
    1.4646   -4.7139    0.0000 C   0  0  0  0  0  0  0  0  0  0  0  0
    5.1179   -1.1364    0.0000 C   0  0  0  0  0  0  0  0  0  0  0  0
    3.5943   -4.2930    0.0000 C   0  0  0  0  0  0  0  0  0  0  0  0
    0.7408   -3.4513    0.0000 C   0  0  0  0  0  0  0  0  0  0  0  0
    0.7408   -4.2930    0.0000 C   0  0  0  0  0  0  0  0  0  0  0  0
    2.8873   -4.7139    0.0000 C   0  0  0  0  0  0  0  0  0  0  0  0
    2.8620   -3.7627    0.0000 F   0  0  0  0  0  0  0  0  0  0  0  0
    4.4024   -0.7155    0.0000 O   0  0  0  0  0  0  0  0  0  0  0  0
    0.0000   -4.7307    0.0000 O   0  0  0  0  0  0  0  0  0  0  0  0
    5.9260   -1.9613    0.0000 O   0  0  0  0  0  0  0  0  0  0  0  0
    4.3098   -1.3805    0.0000 C   0  0  0  0  0  0  0  0  0  0  0  0
    2.1549   -1.8014    0.0000 O   0  0  0  0  0  0  0  0  0  0  0  0
    2.1633   -2.6347    0.0000 C   0  0  0  0  0  0  0  0  0  0  0  0
    6.4143   -2.6347    0.0000 C   0  0  0  0  0  0  0  0  0  0  0  0
    5.8250   -0.7324    0.0000 C   0  0  0  0  0  0  0  0  0  0  0  0
    6.5573   -1.1532    0.0000 O   0  0  0  0  0  0  0  0  0  0  0  0
    7.2644   -0.7660    0.0000 P   0  0  0  0  0  0  0  0  0  0  0  0
    7.9883   -0.3451    0.0000 O   0  0  0  0  0  0  0  0  0  0  0  0
    6.8604   -0.0336    0.0000 O   0  0  0  0  0  0  0  0  0  0  0  0
    7.6769   -1.4731    0.0000 O   0  0  0  0  0  0  0  0  0  0  0  0
  3  6  1  0
  3  8  1  0
  3 11  1  0
  3 25  1  1
  4 10  1  0
  4  5  1  0
  4 21  1  6
  4  7  1  0
  5  9  1  0
  5 13  1  0
  5 27  1  1
  6  7  1  0
  6 14  1  1
  7 17  1  6
  8 12  1  0
  8 16  1  0
  8 24  1  6
  9 15  2  0
  9 20  1  0
 10 11  1  0
 10 26  1  1
 12 28  1  1
 12 14  1  0
 13 18  2  0
 15 19  1  0
 16 22  2  0
 16 29  1  0
 17 20  1  0
 18 19  1  0
 19 23  2  0
 29 30  1  0
 30 31  1  0
 31 32  2  0
 31 33  1  0
 31 34  1  0
M  CHG  4   1   1   2   1  33  -1  34  -1
M  END
>  <Formula>  (661) 
C22H28FNa2O8P

>  <FW>  (661) 
516.4046 (22.9892+22.9892+470.4262)

>  <DSSTox_CID>  (661) 
27137

>  <NR-AR>  (661) 
1

>  <NR-AR-LBD>  (661) 
1

>  <NR-ER>  (661) 
0

>  <NR-ER-LBD>  (661) 
0

>  <NR-PPAR-gamma>  (661) 
0

>  <SR-ARE>  (661) 
0

>  <SR-ATAD5>  (661) 
0

>  <SR-HSE>  (661) 
0

>  <SR-MMP>  (661) 
0

>  <SR-p53>  (661) 
0

$$$$
NCGC00183276-01
     RDKit          2D

 35 38  0  0  1  0  0  0  0  0999 V2000
    4.3153   -2.2923    0.0000 C   0  0  0  0  0  0  0  0  0  0  0  0
    2.1620   -3.5339    0.0000 C   0  0  0  0  0  0  0  0  0  0  0  0
    5.1055   -2.0578    0.0000 C   0  0  0  0  0  0  0  0  0  0  0  0
    3.5947   -3.5339    0.0000 C   0  0  0  0  0  0  0  0  0  0  0  0
    4.3153   -3.1258    0.0000 C   0  0  0  0  0  0  0  0  0  0  0  0
    2.8740   -3.1171    0.0000 C   0  0  0  0  0  0  0  0  0  0  0  0
    2.1620   -4.3587    0.0000 C   0  0  0  0  0  0  0  0  0  0  0  0
    3.5947   -1.8841    0.0000 C   0  0  0  0  0  0  0  0  0  0  0  0
    2.8740   -2.2923    0.0000 C   0  0  0  0  0  0  0  0  0  0  0  0
    1.4500   -4.7669    0.0000 C   0  0  0  0  0  0  0  0  0  0  0  0
    5.1055   -1.2243    0.0000 C   0  0  0  0  0  0  0  0  0  0  0  0
    5.5656   -2.7004    0.0000 C   0  0  0  0  0  0  0  0  0  0  0  0
    5.1055   -3.3776    0.0000 C   0  0  0  0  0  0  0  0  0  0  0  0
    3.5947   -4.3501    0.0000 C   0  0  0  0  0  0  0  0  0  0  0  0
    1.4500   -3.1171    0.0000 C   0  0  0  0  0  0  0  0  0  0  0  0
    2.8740   -4.7669    0.0000 C   0  0  0  0  0  0  0  0  0  0  0  0
    0.7380   -4.3501    0.0000 C   0  0  0  0  0  0  0  0  0  0  0  0
    5.8088   -0.7988    0.0000 O   0  0  0  0  0  0  0  0  0  0  0  0
    0.0000   -4.7495    0.0000 O   0  0  0  0  0  0  0  0  0  0  0  0
    4.3153   -1.4674    0.0000 C   0  0  0  0  0  0  0  0  0  0  0  0
    0.7380   -3.5339    0.0000 C   0  0  0  0  0  0  0  0  0  0  0  0
    2.1447   -1.8841    0.0000 O   0  0  0  0  0  0  0  0  0  0  0  0
    2.1620   -2.7004    0.0000 C   0  0  0  0  0  0  0  0  0  0  0  0
    4.3848   -0.8162    0.0000 C   0  0  0  0  0  0  0  0  0  0  0  0
    3.6728   -1.2330    0.0000 O   0  0  0  0  0  0  0  0  0  0  0  0
    5.8175   -1.6411    0.0000 O   0  0  0  0  0  0  0  0  0  0  0  0
    6.5381   -2.0578    0.0000 C   0  0  0  0  0  0  0  0  0  0  0  0
    6.5381   -2.8827    0.0000 O   0  0  0  0  0  0  0  0  0  0  0  0
    7.2501   -1.6411    0.0000 C   0  0  0  0  0  0  0  0  0  0  0  0
    7.9708   -2.0578    0.0000 C   0  0  0  0  0  0  0  0  0  0  0  0
    8.6828   -1.6411    0.0000 C   0  0  0  0  0  0  0  0  0  0  0  0
    2.9521   -0.8248    0.0000 C   0  0  0  0  0  0  0  0  0  0  0  0
    2.9521    0.0000    0.0000 O   0  0  0  0  0  0  0  0  0  0  0  0
    2.2489   -1.2416    0.0000 C   0  0  0  0  0  0  0  0  0  0  0  0
    1.5195   -0.8335    0.0000 C   0  0  0  0  0  0  0  0  0  0  0  0
  1  3  1  0
  1  5  1  0
  1  8  1  0
  1 20  1  1
  2  6  1  0
  2  7  1  0
  2 15  1  0
  2 23  1  1
  3 11  1  0
  3 12  1  0
  3 26  1  6
  4  5  1  0
  4 14  1  6
  4  6  1  0
  5 13  1  1
  6  9  1  1
  7 10  2  0
  7 16  1  0
  8  9  1  0
  9 22  1  1
 10 17  1  0
 11 18  2  0
 11 24  1  0
 12 13  1  0
 14 16  1  0
 15 21  1  0
 17 21  1  0
 17 19  2  0
 24 25  1  0
 25 32  1  0
 26 27  1  0
 27 28  2  0
 27 29  1  0
 29 30  1  0
 30 31  1  0
 32 33  2  0
 32 34  1  0
 34 35  1  0
M  END
>  <Formula>  (662) 
C28H40O7

>  <FW>  (662) 
488.6130

>  <DSSTox_CID>  (662) 
28529

>  <NR-AR>  (662) 
1

>  <NR-AR-LBD>  (662) 
1

>  <NR-ER-LBD>  (662) 
0

>  <NR-PPAR-gamma>  (662) 
0

>  <NR-AhR>  (662) 
0

>  <SR-ARE>  (662) 
0

>  <SR-ATAD5>  (662) 
0

>  <SR-HSE>  (662) 
0

>  <SR-MMP>  (662) 
0

>  <SR-p53>  (662) 
0

$$$$
NCGC00254049-01
     RDKit          2D

 28 31  0  0  1  0  0  0  0  0999 V2000
    4.2947   -1.5012    0.0000 C   0  0  0  0  0  0  0  0  0  0  0  0
    2.8849   -2.3170    0.0000 C   0  0  0  0  0  0  0  0  0  0  0  0
    5.0844   -1.2597    0.0000 C   0  0  0  0  0  0  0  0  0  0  0  0
    2.1669   -2.7348    0.0000 C   0  0  0  0  0  0  0  0  0  0  0  0
    4.2947   -2.3301    0.0000 C   0  0  0  0  0  0  0  0  0  0  0  0
    3.5833   -2.7348    0.0000 C   0  0  0  0  0  0  0  0  0  0  0  0
    2.1669   -3.5637    0.0000 C   0  0  0  0  0  0  0  0  0  0  0  0
    2.8849   -1.5012    0.0000 C   0  0  0  0  0  0  0  0  0  0  0  0
    5.5609   -1.8993    0.0000 C   0  0  0  0  0  0  0  0  0  0  0  0
    3.5702   -1.0835    0.0000 C   0  0  0  0  0  0  0  0  0  0  0  0
    1.4555   -2.3170    0.0000 C   0  0  0  0  0  0  0  0  0  0  0  0
    5.0844   -2.5585    0.0000 C   0  0  0  0  0  0  0  0  0  0  0  0
    1.4555   -3.9683    0.0000 C   0  0  0  0  0  0  0  0  0  0  0  0
    5.0844   -0.4308    0.0000 C   0  0  0  0  0  0  0  0  0  0  0  0
    3.5833   -3.5637    0.0000 C   0  0  0  0  0  0  0  0  0  0  0  0
    0.7441   -2.7348    0.0000 C   0  0  0  0  0  0  0  0  0  0  0  0
    0.7441   -3.5637    0.0000 C   0  0  0  0  0  0  0  0  0  0  0  0
    2.8849   -3.9683    0.0000 C   0  0  0  0  0  0  0  0  0  0  0  0
    2.8980   -3.1068    0.0000 F   0  0  0  0  0  0  0  0  0  0  0  0
    4.3600    0.0000    0.0000 O   0  0  0  0  0  0  0  0  0  0  0  0
    0.0000   -3.9553    0.0000 O   0  0  0  0  0  0  0  0  0  0  0  0
    4.2947   -0.6788    0.0000 C   0  0  0  0  0  0  0  0  0  0  0  0
    2.1539   -1.0835    0.0000 O   0  0  0  0  0  0  0  0  0  0  0  0
    6.3898   -1.8732    0.0000 O   0  0  0  0  0  0  0  0  0  0  0  0
    2.1669   -1.8993    0.0000 C   0  0  0  0  0  0  0  0  0  0  0  0
    5.8024    0.0000    0.0000 C   0  0  0  0  0  0  0  0  0  0  0  0
    6.5269   -0.3851    0.0000 O   0  0  0  0  0  0  0  0  0  0  0  0
    5.8024   -0.8485    0.0000 O   0  0  0  0  0  0  0  0  0  0  0  0
  1  3  1  0
  1  5  1  0
  1 10  1  0
  1 22  1  1
  2  8  1  0
  2  4  1  0
  2 19  1  6
  2  6  1  0
  3  9  1  0
  3 14  1  0
  3 28  1  6
  4  7  1  0
  4 11  1  0
  4 25  1  1
  5  6  1  0
  5 12  1  1
  6 15  1  6
  7 13  2  0
  7 18  1  0
  8 10  1  0
  8 23  1  1
  9 24  1  6
  9 12  1  0
 11 16  2  0
 13 17  1  0
 14 20  2  0
 14 26  1  0
 15 18  1  0
 16 17  1  0
 17 21  2  0
 26 27  1  0
M  END
>  <Formula>  (663) 
C21H27FO6

>  <FW>  (663) 
394.4339

>  <DSSTox_CID>  (663) 
20742

>  <NR-AR>  (663) 
1

>  <NR-AR-LBD>  (663) 
1

>  <NR-ER>  (663) 
1

>  <NR-ER-LBD>  (663) 
0

>  <NR-PPAR-gamma>  (663) 
0

>  <NR-AhR>  (663) 
0

>  <SR-ATAD5>  (663) 
0

>  <SR-HSE>  (663) 
0

>  <SR-MMP>  (663) 
0

>  <SR-p53>  (663) 
0

$$$$
NCGC00255195-01
     RDKit          2D

 28 31  0  0  1  0  0  0  0  0999 V2000
    4.3068   -1.6544    0.0000 C   0  0  0  0  0  0  0  0  0  0  0  0
    2.8802   -2.4850    0.0000 C   0  0  0  0  0  0  0  0  0  0  0  0
    2.1635   -2.8935    0.0000 C   0  0  0  0  0  0  0  0  0  0  0  0
    4.3068   -2.4850    0.0000 C   0  0  0  0  0  0  0  0  0  0  0  0
    3.5901   -2.8935    0.0000 C   0  0  0  0  0  0  0  0  0  0  0  0
    5.0972   -1.3932    0.0000 C   0  0  0  0  0  0  0  0  0  0  0  0
    2.1635   -3.7241    0.0000 C   0  0  0  0  0  0  0  0  0  0  0  0
    2.8802   -1.6544    0.0000 C   0  0  0  0  0  0  0  0  0  0  0  0
    3.5901   -1.2459    0.0000 C   0  0  0  0  0  0  0  0  0  0  0  0
    5.5862   -2.0697    0.0000 C   0  0  0  0  0  0  0  0  0  0  0  0
    1.4535   -2.4850    0.0000 C   0  0  0  0  0  0  0  0  0  0  0  0
    5.0972   -2.7261    0.0000 C   0  0  0  0  0  0  0  0  0  0  0  0
    1.4535   -4.1394    0.0000 C   0  0  0  0  0  0  0  0  0  0  0  0
    5.3182   -0.5961    0.0000 C   0  0  0  0  0  0  0  0  0  0  0  0
    3.5901   -3.7241    0.0000 C   0  0  0  0  0  0  0  0  0  0  0  0
    0.7368   -2.8935    0.0000 C   0  0  0  0  0  0  0  0  0  0  0  0
    0.7368   -3.7241    0.0000 C   0  0  0  0  0  0  0  0  0  0  0  0
    2.8802   -4.1394    0.0000 C   0  0  0  0  0  0  0  0  0  0  0  0
    2.8735   -3.1749    0.0000 F   0  0  0  0  0  0  0  0  0  0  0  0
    4.7355    0.0000    0.0000 O   0  0  0  0  0  0  0  0  0  0  0  0
    0.0000   -4.1461    0.0000 O   0  0  0  0  0  0  0  0  0  0  0  0
    5.9211   -1.3932    0.0000 O   0  0  0  0  0  0  0  0  0  0  0  0
    4.3068   -0.8105    0.0000 C   0  0  0  0  0  0  0  0  0  0  0  0
    2.1500   -1.2257    0.0000 O   0  0  0  0  0  0  0  0  0  0  0  0
    2.1635   -2.0697    0.0000 C   0  0  0  0  0  0  0  0  0  0  0  0
    6.4100   -2.0630    0.0000 C   0  0  0  0  0  0  0  0  0  0  0  0
    6.1153   -0.3885    0.0000 C   0  0  0  0  0  0  0  0  0  0  0  0
    6.6980   -0.9846    0.0000 O   0  0  0  0  0  0  0  0  0  0  0  0
  1  4  1  0
  1  6  1  0
  1  9  1  0
  1 23  1  1
  2  8  1  0
  2  3  1  0
  2 19  1  6
  2  5  1  0
  3  7  1  0
  3 11  1  0
  3 25  1  1
  4  5  1  0
  4 12  1  1
  5 15  1  6
  6 10  1  0
  6 14  1  0
  6 22  1  6
  7 13  2  0
  7 18  1  0
  8  9  1  0
  8 24  1  1
 10 26  1  1
 10 12  1  0
 11 16  2  0
 13 17  1  0
 14 20  2  0
 14 27  1  0
 15 18  1  0
 16 17  1  0
 17 21  2  0
 27 28  1  0
M  END
>  <Formula>  (664) 
C22H29FO5

>  <FW>  (664) 
392.4611

>  <DSSTox_CID>  (664) 
2667

>  <NR-AR>  (664) 
1

>  <NR-AR-LBD>  (664) 
1

>  <NR-ER-LBD>  (664) 
0

>  <NR-PPAR-gamma>  (664) 
0

>  <NR-AhR>  (664) 
1

>  <SR-ARE>  (664) 
0

>  <SR-ATAD5>  (664) 
0

>  <SR-HSE>  (664) 
0

>  <SR-MMP>  (664) 
0

>  <SR-p53>  (664) 
0

$$$$
NCGC00256783-01
     RDKit          2D

 34 35  0  0  1  0  0  0  0  0999 V2000
    7.6496    0.0000    0.0000 Na  0  0  0  0  0 15  0  0  0  0  0  0
    8.6144   -1.9985    0.0000 Na  0  0  0  0  0 15  0  0  0  0  0  0
    4.2642   -2.6360    0.0000 C   0  0  0  0  0  0  0  0  0  0  0  0
    2.8686   -3.4630    0.0000 C   0  0  0  0  0  0  0  0  0  0  0  0
    2.1364   -3.8593    0.0000 C   0  0  0  0  0  0  0  0  0  0  0  0
    4.2642   -3.4630    0.0000 C   0  0  0  0  0  0  0  0  0  0  0  0
    3.5577   -3.8593    0.0000 C   0  0  0  0  0  0  0  0  0  0  0  0
    5.0739   -2.4034    0.0000 C   0  0  0  0  0  0  0  0  0  0  0  0
    2.1364   -4.6863    0.0000 C   0  0  0  0  0  0  0  0  0  0  0  0
    2.8686   -2.6360    0.0000 C   0  0  0  0  0  0  0  0  0  0  0  0
    3.5577   -2.2484    0.0000 C   0  0  0  0  0  0  0  0  0  0  0  0
    5.5391   -3.0495    0.0000 C   0  0  0  0  0  0  0  0  0  0  0  0
    1.4558   -3.4630    0.0000 C   0  0  0  0  0  0  0  0  0  0  0  0
    5.0566   -3.7128    0.0000 C   0  0  0  0  0  0  0  0  0  0  0  0
    1.4558   -5.1084    0.0000 C   0  0  0  0  0  0  0  0  0  0  0  0
    5.0739   -1.5678    0.0000 C   0  0  0  0  0  0  0  0  0  0  0  0
    3.5577   -4.6863    0.0000 C   0  0  0  0  0  0  0  0  0  0  0  0
    0.7322   -3.8593    0.0000 C   0  0  0  0  0  0  0  0  0  0  0  0
    0.7322   -4.6863    0.0000 C   0  0  0  0  0  0  0  0  0  0  0  0
    2.8686   -5.1084    0.0000 C   0  0  0  0  0  0  0  0  0  0  0  0
    2.8341   -4.1694    0.0000 F   0  0  0  0  0  0  0  0  0  0  0  0
    4.3589   -1.1457    0.0000 O   0  0  0  0  0  0  0  0  0  0  0  0
    0.0000   -5.1256    0.0000 O   0  0  0  0  0  0  0  0  0  0  0  0
    5.8664   -2.3776    0.0000 O   0  0  0  0  0  0  0  0  0  0  0  0
    4.2642   -1.8004    0.0000 C   0  0  0  0  0  0  0  0  0  0  0  0
    2.1364   -2.2225    0.0000 O   0  0  0  0  0  0  0  0  0  0  0  0
    2.1364   -3.0495    0.0000 C   0  0  0  0  0  0  0  0  0  0  0  0
    6.3574   -3.0495    0.0000 C   0  0  0  0  0  0  0  0  0  0  0  0
    5.7717   -1.1629    0.0000 C   0  0  0  0  0  0  0  0  0  0  0  0
    6.4953   -1.5850    0.0000 O   0  0  0  0  0  0  0  0  0  0  0  0
    7.2016   -1.1974    0.0000 P   0  0  0  0  0  0  0  0  0  0  0  0
    7.9166   -0.7753    0.0000 O   0  0  0  0  0  0  0  0  0  0  0  0
    6.7968   -0.4738    0.0000 O   0  0  0  0  0  0  0  0  0  0  0  0
    7.6065   -1.9038    0.0000 O   0  0  0  0  0  0  0  0  0  0  0  0
  3  6  1  0
  3  8  1  0
  3 11  1  0
  3 25  1  1
  4 10  1  0
  4  5  1  0
  4 21  1  6
  4  7  1  0
  5  9  1  0
  5 13  1  0
  5 27  1  1
  6  7  1  0
  6 14  1  1
  7 17  1  6
  8 12  1  0
  8 16  1  0
  8 24  1  6
  9 15  2  0
  9 20  1  0
 10 11  1  0
 10 26  1  1
 12 28  1  6
 12 14  1  0
 13 18  2  0
 15 19  1  0
 16 22  2  0
 16 29  1  0
 17 20  1  0
 18 19  1  0
 19 23  2  0
 29 30  1  0
 30 31  1  0
 31 32  2  0
 31 33  1  0
 31 34  1  0
M  CHG  4   1   1   2   1  33  -1  34  -1
M  END
>  <Formula>  (665) 
C22H28FNa2O8P

>  <FW>  (665) 
516.4046 (22.9892+22.9892+470.4262)

>  <DSSTox_CID>  (665) 
27429

>  <NR-AR>  (665) 
1

>  <NR-AR-LBD>  (665) 
1

>  <NR-ER-LBD>  (665) 
0

>  <NR-PPAR-gamma>  (665) 
0

>  <NR-AhR>  (665) 
0

>  <SR-ARE>  (665) 
0

>  <SR-ATAD5>  (665) 
0

>  <SR-HSE>  (665) 
0

>  <SR-MMP>  (665) 
0

>  <SR-p53>  (665) 
0

$$$$
NCGC00256709-01
     RDKit          2D

 31 35  0  0  1  0  0  0  0  0999 V2000
    5.1015   -1.2413    0.0000 C   0  0  0  0  0  0  0  0  0  0  0  0
    4.3051   -1.4996    0.0000 C   0  0  0  0  0  0  0  0  0  0  0  0
    2.1597   -2.7265    0.0000 C   0  0  0  0  0  0  0  0  0  0  0  0
    4.3051   -2.3176    0.0000 C   0  0  0  0  0  0  0  0  0  0  0  0
    2.1597   -3.5517    0.0000 C   0  0  0  0  0  0  0  0  0  0  0  0
    3.5947   -2.7265    0.0000 C   0  0  0  0  0  0  0  0  0  0  0  0
    2.8700   -2.3176    0.0000 C   0  0  0  0  0  0  0  0  0  0  0  0
    5.5535   -1.9014    0.0000 C   0  0  0  0  0  0  0  0  0  0  0  0
    5.5679   -0.5812    0.0000 O   0  0  0  0  0  0  0  0  0  0  0  0
    3.5803   -1.0834    0.0000 C   0  0  0  0  0  0  0  0  0  0  0  0
    6.3428   -0.8395    0.0000 C   0  0  0  0  0  0  0  0  0  0  0  0
    2.8700   -1.4996    0.0000 C   0  0  0  0  0  0  0  0  0  0  0  0
    6.3428   -1.6503    0.0000 O   0  0  0  0  0  0  0  0  0  0  0  0
    5.0871   -2.5687    0.0000 C   0  0  0  0  0  0  0  0  0  0  0  0
    3.5947   -3.5588    0.0000 C   0  0  0  0  0  0  0  0  0  0  0  0
    2.8700   -3.9463    0.0000 C   0  0  0  0  0  0  0  0  0  0  0  0
    1.4422   -3.9463    0.0000 C   0  0  0  0  0  0  0  0  0  0  0  0
    5.1015   -0.4162    0.0000 C   0  0  0  0  0  0  0  0  0  0  0  0
    1.4422   -2.3176    0.0000 C   0  0  0  0  0  0  0  0  0  0  0  0
    0.7318   -3.5517    0.0000 C   0  0  0  0  0  0  0  0  0  0  0  0
    5.8118    0.0000    0.0000 O   0  0  0  0  0  0  0  0  0  0  0  0
    0.0000   -3.9463    0.0000 O   0  0  0  0  0  0  0  0  0  0  0  0
    4.3194   -0.6601    0.0000 C   0  0  0  0  0  0  0  0  0  0  0  0
    0.7318   -2.7265    0.0000 C   0  0  0  0  0  0  0  0  0  0  0  0
    2.1597   -1.9014    0.0000 C   0  0  0  0  0  0  0  0  0  0  0  0
    2.8700   -4.7714    0.0000 F   0  0  0  0  0  0  0  0  0  0  0  0
    2.1597   -1.0619    0.0000 O   0  0  0  0  0  0  0  0  0  0  0  0
    4.3696   -0.0144    0.0000 C   0  0  0  0  0  0  0  0  0  0  0  0
    6.5580   -0.0430    0.0000 C   0  0  0  0  0  0  0  0  0  0  0  0
    7.1751   -0.8395    0.0000 C   0  0  0  0  0  0  0  0  0  0  0  0
    3.6737   -0.4592    0.0000 O   0  0  0  0  0  0  0  0  0  0  0  0
  1  2  1  0
  1  8  1  0
  1  9  1  0
  1 18  1  1
  2  4  1  0
  2 10  1  0
  2 23  1  1
  3  7  1  0
  3  5  1  0
  3 19  1  0
  3 25  1  1
  4  6  1  0
  4 14  1  1
  5 17  2  0
  5 16  1  0
  6 15  1  6
  6  7  1  0
  7 12  1  1
  8 13  1  0
  8 14  1  6
  9 11  1  0
 10 12  1  0
 11 29  1  0
 11 30  1  0
 11 13  1  0
 12 27  1  1
 15 16  1  0
 16 26  1  6
 17 20  1  0
 18 21  2  0
 18 28  1  0
 19 24  1  0
 20 24  1  0
 20 22  2  0
 28 31  1  0
M  END
>  <Formula>  (666) 
C24H33FO6

>  <FW>  (666) 
436.5136

>  <DSSTox_CID>  (666) 
27434

>  <NR-AR>  (666) 
1

>  <NR-AR-LBD>  (666) 
0

>  <NR-ER>  (666) 
0

>  <NR-PPAR-gamma>  (666) 
0

>  <NR-AhR>  (666) 
0

>  <SR-ARE>  (666) 
0

>  <SR-ATAD5>  (666) 
0

>  <SR-HSE>  (666) 
0

>  <SR-MMP>  (666) 
0

>  <SR-p53>  (666) 
0

$$$$
NCGC00257676-01
     RDKit          2D

 28 31  0  0  1  0  0  0  0  0999 V2000
    4.3061   -1.6634    0.0000 C   0  0  0  0  0  0  0  0  0  0  0  0
    2.8841   -2.4884    0.0000 C   0  0  0  0  0  0  0  0  0  0  0  0
    2.1664   -2.9043    0.0000 C   0  0  0  0  0  0  0  0  0  0  0  0
    4.3061   -2.4884    0.0000 C   0  0  0  0  0  0  0  0  0  0  0  0
    3.5951   -2.9043    0.0000 C   0  0  0  0  0  0  0  0  0  0  0  0
    5.1042   -1.4018    0.0000 C   0  0  0  0  0  0  0  0  0  0  0  0
    2.1664   -3.7292    0.0000 C   0  0  0  0  0  0  0  0  0  0  0  0
    2.8841   -1.6634    0.0000 C   0  0  0  0  0  0  0  0  0  0  0  0
    3.5951   -1.2543    0.0000 C   0  0  0  0  0  0  0  0  0  0  0  0
    5.5939   -2.0793    0.0000 C   0  0  0  0  0  0  0  0  0  0  0  0
    1.4555   -2.4884    0.0000 C   0  0  0  0  0  0  0  0  0  0  0  0
    5.1042   -2.7365    0.0000 C   0  0  0  0  0  0  0  0  0  0  0  0
    1.4555   -4.1518    0.0000 C   0  0  0  0  0  0  0  0  0  0  0  0
    5.3256   -0.5969    0.0000 C   0  0  0  0  0  0  0  0  0  0  0  0
    3.5951   -3.7292    0.0000 C   0  0  0  0  0  0  0  0  0  0  0  0
    0.7378   -2.9043    0.0000 C   0  0  0  0  0  0  0  0  0  0  0  0
    0.7378   -3.7292    0.0000 C   0  0  0  0  0  0  0  0  0  0  0  0
    2.8841   -4.1518    0.0000 C   0  0  0  0  0  0  0  0  0  0  0  0
    2.8774   -3.1859    0.0000 F   0  0  0  0  0  0  0  0  0  0  0  0
    4.7353    0.0000    0.0000 O   0  0  0  0  0  0  0  0  0  0  0  0
    0.0000   -4.1585    0.0000 O   0  0  0  0  0  0  0  0  0  0  0  0
    5.9292   -1.4018    0.0000 O   0  0  0  0  0  0  0  0  0  0  0  0
    4.3061   -0.8116    0.0000 C   0  0  0  0  0  0  0  0  0  0  0  0
    2.1463   -1.2341    0.0000 O   0  0  0  0  0  0  0  0  0  0  0  0
    2.1664   -2.0793    0.0000 C   0  0  0  0  0  0  0  0  0  0  0  0
    6.4188   -2.0659    0.0000 C   0  0  0  0  0  0  0  0  0  0  0  0
    6.1170   -0.3957    0.0000 C   0  0  0  0  0  0  0  0  0  0  0  0
    6.7072   -0.9860    0.0000 O   0  0  0  0  0  0  0  0  0  0  0  0
  1  4  1  0
  1  6  1  0
  1  9  1  0
  1 23  1  1
  2  8  1  0
  2  3  1  0
  2 19  1  6
  2  5  1  0
  3  7  1  0
  3 11  1  0
  3 25  1  1
  4  5  1  0
  4 12  1  1
  5 15  1  6
  6 10  1  0
  6 14  1  0
  6 22  1  6
  7 13  2  0
  7 18  1  0
  8  9  1  0
  8 24  1  1
 10 26  1  6
 10 12  1  0
 11 16  2  0
 13 17  1  0
 14 20  2  0
 14 27  1  0
 15 18  1  0
 16 17  1  0
 17 21  2  0
 27 28  1  0
M  END
>  <Formula>  (667) 
C22H29FO5

>  <FW>  (667) 
392.4611

>  <DSSTox_CID>  (667) 
384

>  <NR-AR>  (667) 
1

>  <NR-AR-LBD>  (667) 
1

>  <NR-ER>  (667) 
0

>  <NR-ER-LBD>  (667) 
0

>  <NR-PPAR-gamma>  (667) 
0

>  <SR-ARE>  (667) 
0

>  <SR-ATAD5>  (667) 
0

>  <SR-HSE>  (667) 
0

>  <SR-MMP>  (667) 
0

>  <SR-p53>  (667) 
0

$$$$
NCGC00159428-02
     RDKit          2D

 54 61  0  0  1  0  0  0  0  0999 V2000
    8.6378   -5.6722    0.0000 O   0  0  0  0  0  0  0  0  0  0  0  0
    7.9180   -5.2691    0.0000 C   0  0  0  0  0  0  0  0  0  0  0  0
    7.1982   -5.6722    0.0000 C   0  0  0  0  0  0  0  0  0  0  0  0
    7.9180   -4.4197    0.0000 O   0  0  0  0  0  0  0  0  0  0  0  0
    6.4784   -5.2691    0.0000 C   0  0  0  0  0  0  0  0  0  0  0  0
    7.1982   -4.0166    0.0000 C   0  0  0  0  0  0  0  0  0  0  0  0
    6.4784   -4.4197    0.0000 C   0  0  0  0  0  0  0  0  0  0  0  0
    5.7586   -4.0166    0.0000 O   0  0  0  0  0  0  0  0  0  0  0  0
    5.0388   -4.4197    0.0000 C   0  0  0  0  0  0  0  0  0  0  0  0
    5.0388   -5.2691    0.0000 O   0  0  0  0  0  0  0  0  0  0  0  0
    4.3189   -4.0166    0.0000 C   0  0  0  0  0  0  0  0  0  0  0  0
    4.3189   -5.6722    0.0000 C   0  0  0  0  0  0  0  0  0  0  0  0
    3.5991   -4.4197    0.0000 C   0  0  0  0  0  0  0  0  0  0  0  0
    3.5991   -5.2691    0.0000 C   0  0  0  0  0  0  0  0  0  0  0  0
    2.8793   -5.6722    0.0000 O   0  0  0  0  0  0  0  0  0  0  0  0
    2.1594   -5.2691    0.0000 C   0  0  0  0  0  0  0  0  0  0  0  0
    1.4396   -5.6722    0.0000 C   0  0  0  0  0  0  0  0  0  0  0  0
    2.1594   -4.4197    0.0000 O   0  0  0  0  0  0  0  0  0  0  0  0
    0.7198   -5.2691    0.0000 C   0  0  0  0  0  0  0  0  0  0  0  0
    1.4396   -4.0166    0.0000 C   0  0  0  0  0  0  0  0  0  0  0  0
    0.7198   -4.4197    0.0000 C   0  0  0  0  0  0  0  0  0  0  0  0
    5.7586   -5.6722    0.0000 O   0  0  0  0  0  0  0  0  0  0  0  0
    2.8793   -4.0166    0.0000 O   0  0  0  0  0  0  0  0  0  0  0  0
    0.0000   -4.0166    0.0000 O   0  0  0  0  0  0  0  0  0  0  0  0
    0.0000   -5.6722    0.0000 O   0  0  0  0  0  0  0  0  0  0  0  0
    1.4396   -3.1960    0.0000 C   0  0  0  0  0  0  0  0  0  0  0  0
    4.3189   -6.5071    0.0000 C   0  0  0  0  0  0  0  0  0  0  0  0
    7.1982   -3.1960    0.0000 C   0  0  0  0  0  0  0  0  0  0  0  0
    9.3576   -5.2691    0.0000 C   0  0  0  0  0  0  0  0  0  0  0  0
    9.3576   -4.4197    0.0000 C   0  0  0  0  0  0  0  0  0  0  0  0
   10.0774   -5.6722    0.0000 C   0  0  0  0  0  0  0  0  0  0  0  0
   10.0774   -4.0166    0.0000 C   0  0  0  0  0  0  0  0  0  0  0  0
   10.7973   -5.2691    0.0000 C   0  0  0  0  0  0  0  0  0  0  0  0
   10.7973   -4.4341    0.0000 C   0  0  0  0  0  0  0  0  0  0  0  0
   11.5171   -5.6722    0.0000 C   0  0  0  0  0  0  0  0  0  0  0  0
   12.2369   -5.2691    0.0000 C   0  0  0  0  0  0  0  0  0  0  0  0
   11.5171   -4.0166    0.0000 C   0  0  0  0  0  0  0  0  0  0  0  0
   12.2369   -4.4197    0.0000 C   0  0  0  0  0  0  0  0  0  0  0  0
   11.5171   -3.1960    0.0000 C   0  0  0  0  0  0  0  0  0  0  0  0
   12.2369   -2.7641    0.0000 C   0  0  0  0  0  0  0  0  0  0  0  0
   12.9568   -4.0166    0.0000 C   0  0  0  0  0  0  0  0  0  0  0  0
   12.9568   -3.1960    0.0000 C   0  0  0  0  0  0  0  0  0  0  0  0
   14.3964   -4.0166    0.0000 C   0  0  0  0  0  0  0  0  0  0  0  0
   13.6766   -2.7641    0.0000 C   0  0  0  0  0  0  0  0  0  0  0  0
   14.3964   -3.1960    0.0000 C   0  0  0  0  0  0  0  0  0  0  0  0
   13.6766   -1.9435    0.0000 C   0  0  0  0  0  0  0  0  0  0  0  0
   12.9999   -1.4684    0.0000 C   0  0  0  0  0  0  0  0  0  0  0  0
   14.3388   -1.4684    0.0000 C   0  0  0  0  0  0  0  0  0  0  0  0
   13.2591   -0.6622    0.0000 C   0  0  0  0  0  0  0  0  0  0  0  0
   14.0941   -0.6622    0.0000 O   0  0  0  0  0  0  0  0  0  0  0  0
   10.7973   -3.5991    0.0000 C   0  0  0  0  0  0  0  0  0  0  0  0
   12.9568   -4.8660    0.0000 O   0  0  0  0  0  0  0  0  0  0  0  0
   12.9568   -2.3610    0.0000 C   0  0  0  0  0  0  0  0  0  0  0  0
   12.7552    0.0000    0.0000 O   0  0  0  0  0  0  0  0  0  0  0  0
  2  1  1  1
 29  1  1  1
  2  3  1  0
  2  4  1  0
  3  5  1  0
  4  6  1  0
  5  7  1  0
  5 22  1  6
  6  7  1  0
  6 28  1  1
  7  8  1  6
  9  8  1  6
  9 10  1  0
  9 11  1  0
 10 12  1  0
 11 13  1  0
 12 14  1  0
 12 27  1  6
 13 14  1  0
 13 23  1  1
 14 15  1  1
 16 15  1  1
 16 17  1  0
 16 18  1  0
 17 19  1  0
 18 20  1  0
 19 21  1  0
 19 25  1  6
 20 21  1  0
 20 26  1  1
 21 24  1  6
 29 30  1  0
 29 31  1  0
 30 32  1  0
 33 31  1  6
 32 34  1  0
 33 35  1  0
 33 34  1  0
 34 37  1  0
 34 51  1  1
 35 36  1  0
 38 36  1  6
 37 39  1  1
 37 38  1  0
 38 41  1  0
 39 40  1  0
 40 42  1  0
 41 43  1  0
 41 42  1  0
 41 52  1  1
 42 44  1  0
 42 53  1  1
 43 45  1  0
 44 45  1  1
 44 46  1  0
 46 47  2  0
 46 48  1  0
 47 49  1  0
 48 50  1  0
 49 50  1  0
 49 54  2  0
M  END
>  <Formula>  (668) 
C41H64O13

>  <FW>  (668) 
764.9391

>  <DSSTox_CID>  (668) 
2933

>  <NR-AR-LBD>  (668) 
1

>  <SR-MMP>  (668) 
1

>  <SR-p53>  (668) 
1

$$$$
NCGC00013319-01
     RDKit          2D

 41 46  0  0  1  0  0  0  0  0999 V2000
    7.1998   -3.1445    0.0000 C   0  0  0  0  0  0  0  0  0  0  0  0
    7.1998   -3.9607    0.0000 C   0  0  0  0  0  0  0  0  0  0  0  0
    5.7564   -3.9607    0.0000 C   0  0  0  0  0  0  0  0  0  0  0  0
    6.4867   -4.3645    0.0000 C   0  0  0  0  0  0  0  0  0  0  0  0
    5.0433   -4.3645    0.0000 C   0  0  0  0  0  0  0  0  0  0  0  0
    6.4867   -2.7321    0.0000 C   0  0  0  0  0  0  0  0  0  0  0  0
    5.7564   -3.1445    0.0000 C   0  0  0  0  0  0  0  0  0  0  0  0
    6.4867   -5.1893    0.0000 C   0  0  0  0  0  0  0  0  0  0  0  0
    5.0433   -5.1893    0.0000 C   0  0  0  0  0  0  0  0  0  0  0  0
    5.7564   -5.6275    0.0000 C   0  0  0  0  0  0  0  0  0  0  0  0
    7.1998   -2.2940    0.0000 C   0  0  0  0  0  0  0  0  0  0  0  0
    5.0433   -3.5483    0.0000 C   0  0  0  0  0  0  0  0  0  0  0  0
    4.3387   -3.9607    0.0000 C   0  0  0  0  0  0  0  0  0  0  0  0
    4.3387   -5.6275    0.0000 C   0  0  0  0  0  0  0  0  0  0  0  0
    3.6170   -4.3645    0.0000 C   0  0  0  0  0  0  0  0  0  0  0  0
    3.6170   -5.1893    0.0000 C   0  0  0  0  0  0  0  0  0  0  0  0
    7.1998   -4.8027    0.0000 O   0  0  0  0  0  0  0  0  0  0  0  0
    8.5915   -3.9607    0.0000 C   0  0  0  0  0  0  0  0  0  0  0  0
    7.8956   -2.7321    0.0000 C   0  0  0  0  0  0  0  0  0  0  0  0
    8.5915   -3.1445    0.0000 C   0  0  0  0  0  0  0  0  0  0  0  0
    7.8956   -1.9159    0.0000 C   0  0  0  0  0  0  0  0  0  0  0  0
    7.2255   -1.4348    0.0000 C   0  0  0  0  0  0  0  0  0  0  0  0
    8.5658   -1.4348    0.0000 C   0  0  0  0  0  0  0  0  0  0  0  0
    7.4919   -0.6530    0.0000 C   0  0  0  0  0  0  0  0  0  0  0  0
    8.2995   -0.6530    0.0000 O   0  0  0  0  0  0  0  0  0  0  0  0
    6.9935    0.0000    0.0000 O   0  0  0  0  0  0  0  0  0  0  0  0
    5.0347   -2.7321    0.0000 O   0  0  0  0  0  0  0  0  0  0  0  0
    4.3387   -3.1360    0.0000 O   0  0  0  0  0  0  0  0  0  0  0  0
    3.6256   -3.5483    0.0000 O   0  0  0  0  0  0  0  0  0  0  0  0
    2.8868   -5.6533    0.0000 O   0  0  0  0  0  0  0  0  0  0  0  0
    2.1651   -5.2322    0.0000 C   0  0  0  0  0  0  0  0  0  0  0  0
    1.4434   -5.6447    0.0000 C   0  0  0  0  0  0  0  0  0  0  0  0
    2.1651   -4.3903    0.0000 O   0  0  0  0  0  0  0  0  0  0  0  0
    0.7217   -5.2151    0.0000 C   0  0  0  0  0  0  0  0  0  0  0  0
    1.4520   -3.9607    0.0000 C   0  0  0  0  0  0  0  0  0  0  0  0
    0.7217   -4.3817    0.0000 C   0  0  0  0  0  0  0  0  0  0  0  0
    1.4520   -3.1360    0.0000 C   0  0  0  0  0  0  0  0  0  0  0  0
    0.0000   -3.9607    0.0000 O   0  0  0  0  0  0  0  0  0  0  0  0
    0.0000   -5.6361    0.0000 O   0  0  0  0  0  0  0  0  0  0  0  0
    1.4434   -6.4695    0.0000 O   0  0  0  0  0  0  0  0  0  0  0  0
    5.0433   -6.0227    0.0000 O   0  0  0  0  0  0  0  0  0  0  0  0
  1  6  1  0
  1 11  1  1
  1  2  1  0
  1 19  1  0
  2  4  1  0
  2 17  1  1
  2 18  1  0
  3  7  1  1
  3  5  1  0
  3  4  1  0
  4  8  1  6
  5  9  1  0
  5 12  1  1
  5 13  1  0
  6  7  1  0
  7 27  1  6
  8 10  1  0
  9 14  1  0
  9 10  1  0
  9 41  1  1
 12 28  1  0
 13 15  1  0
 13 29  1  1
 14 16  1  0
 15 16  1  0
 16 30  1  1
 18 20  1  0
 19 20  1  1
 19 21  1  0
 21 22  2  0
 21 23  1  0
 22 24  1  0
 23 25  1  0
 24 25  1  0
 24 26  2  0
 31 30  1  1
 31 32  1  0
 31 33  1  0
 32 34  1  0
 32 40  1  6
 33 35  1  0
 34 36  1  0
 34 39  1  6
 35 36  1  0
 35 37  1  6
 36 38  1  1
M  END
>  <Formula>  (669) 
C29H44O12

>  <FW>  (669) 
584.6525

>  <DSSTox_CID>  (669) 
23765

>  <NR-Aromatase>  (669) 
1

>  <NR-AR>  (669) 
0

>  <NR-AR-LBD>  (669) 
1

>  <SR-MMP>  (669) 
1

>  <SR-p53>  (669) 
0

$$$$
NCGC00090797-03
     RDKit          2D

 55 62  0  0  1  0  0  0  0  0999 V2000
    8.6371   -5.6717    0.0000 O   0  0  0  0  0  0  0  0  0  0  0  0
    7.9174   -5.2687    0.0000 C   0  0  0  0  0  0  0  0  0  0  0  0
    7.1976   -5.6717    0.0000 C   0  0  0  0  0  0  0  0  0  0  0  0
    7.9174   -4.4194    0.0000 O   0  0  0  0  0  0  0  0  0  0  0  0
    6.4778   -5.2687    0.0000 C   0  0  0  0  0  0  0  0  0  0  0  0
    7.1976   -4.0162    0.0000 C   0  0  0  0  0  0  0  0  0  0  0  0
    6.4778   -4.4194    0.0000 C   0  0  0  0  0  0  0  0  0  0  0  0
    5.7581   -4.0162    0.0000 O   0  0  0  0  0  0  0  0  0  0  0  0
    5.0383   -4.4194    0.0000 C   0  0  0  0  0  0  0  0  0  0  0  0
    5.0383   -5.2687    0.0000 O   0  0  0  0  0  0  0  0  0  0  0  0
    4.3186   -4.0162    0.0000 C   0  0  0  0  0  0  0  0  0  0  0  0
    4.3186   -5.6717    0.0000 C   0  0  0  0  0  0  0  0  0  0  0  0
    3.5988   -4.4194    0.0000 C   0  0  0  0  0  0  0  0  0  0  0  0
    3.5988   -5.2687    0.0000 C   0  0  0  0  0  0  0  0  0  0  0  0
    2.8790   -5.6717    0.0000 O   0  0  0  0  0  0  0  0  0  0  0  0
    2.1593   -5.2687    0.0000 C   0  0  0  0  0  0  0  0  0  0  0  0
    1.4396   -5.6717    0.0000 C   0  0  0  0  0  0  0  0  0  0  0  0
    2.1593   -4.4194    0.0000 O   0  0  0  0  0  0  0  0  0  0  0  0
    0.7197   -5.2687    0.0000 C   0  0  0  0  0  0  0  0  0  0  0  0
    1.4396   -4.0162    0.0000 C   0  0  0  0  0  0  0  0  0  0  0  0
    0.7197   -4.4194    0.0000 C   0  0  0  0  0  0  0  0  0  0  0  0
    5.7581   -5.6717    0.0000 O   0  0  0  0  0  0  0  0  0  0  0  0
    2.8790   -4.0162    0.0000 O   0  0  0  0  0  0  0  0  0  0  0  0
    0.0000   -4.0162    0.0000 O   0  0  0  0  0  0  0  0  0  0  0  0
    0.0000   -5.6717    0.0000 O   0  0  0  0  0  0  0  0  0  0  0  0
    1.4396   -3.1957    0.0000 C   0  0  0  0  0  0  0  0  0  0  0  0
    4.3186   -6.5066    0.0000 C   0  0  0  0  0  0  0  0  0  0  0  0
    7.1976   -3.1957    0.0000 C   0  0  0  0  0  0  0  0  0  0  0  0
    9.3569   -5.2687    0.0000 C   0  0  0  0  0  0  0  0  0  0  0  0
    9.3569   -4.4194    0.0000 C   0  0  0  0  0  0  0  0  0  0  0  0
   10.0767   -5.6717    0.0000 C   0  0  0  0  0  0  0  0  0  0  0  0
   10.0767   -4.0162    0.0000 C   0  0  0  0  0  0  0  0  0  0  0  0
   10.7964   -5.2687    0.0000 C   0  0  0  0  0  0  0  0  0  0  0  0
   10.7964   -4.4338    0.0000 C   0  0  0  0  0  0  0  0  0  0  0  0
   11.5162   -5.6717    0.0000 C   0  0  0  0  0  0  0  0  0  0  0  0
   12.2360   -5.2687    0.0000 C   0  0  0  0  0  0  0  0  0  0  0  0
   11.5162   -4.0162    0.0000 C   0  0  0  0  0  0  0  0  0  0  0  0
   12.2360   -4.4194    0.0000 C   0  0  0  0  0  0  0  0  0  0  0  0
   11.5162   -3.1957    0.0000 C   0  0  0  0  0  0  0  0  0  0  0  0
   12.2360   -2.7639    0.0000 C   0  0  0  0  0  0  0  0  0  0  0  0
   12.9557   -4.0162    0.0000 C   0  0  0  0  0  0  0  0  0  0  0  0
   12.9557   -3.1957    0.0000 C   0  0  0  0  0  0  0  0  0  0  0  0
   14.3952   -4.0162    0.0000 C   0  0  0  0  0  0  0  0  0  0  0  0
   13.6755   -2.7639    0.0000 C   0  0  0  0  0  0  0  0  0  0  0  0
   14.3952   -3.1957    0.0000 C   0  0  0  0  0  0  0  0  0  0  0  0
   13.6755   -1.9434    0.0000 C   0  0  0  0  0  0  0  0  0  0  0  0
   12.9989   -1.4683    0.0000 C   0  0  0  0  0  0  0  0  0  0  0  0
   14.3377   -1.4683    0.0000 C   0  0  0  0  0  0  0  0  0  0  0  0
   13.2580   -0.6622    0.0000 C   0  0  0  0  0  0  0  0  0  0  0  0
   14.0929   -0.6622    0.0000 O   0  0  0  0  0  0  0  0  0  0  0  0
   10.7964   -3.5988    0.0000 C   0  0  0  0  0  0  0  0  0  0  0  0
   12.9557   -4.8656    0.0000 O   0  0  0  0  0  0  0  0  0  0  0  0
   12.9557   -2.3608    0.0000 C   0  0  0  0  0  0  0  0  0  0  0  0
   12.7542    0.0000    0.0000 O   0  0  0  0  0  0  0  0  0  0  0  0
   12.2360   -1.9434    0.0000 O   0  0  0  0  0  0  0  0  0  0  0  0
  2  1  1  1
 29  1  1  1
  2  3  1  0
  2  4  1  0
  3  5  1  0
  4  6  1  0
  5  7  1  0
  5 22  1  6
  6  7  1  0
  6 28  1  1
  7  8  1  6
  9  8  1  6
  9 10  1  0
  9 11  1  0
 10 12  1  0
 11 13  1  0
 12 14  1  0
 12 27  1  6
 13 14  1  0
 13 23  1  1
 14 15  1  1
 16 15  1  1
 16 17  1  0
 16 18  1  0
 17 19  1  0
 18 20  1  0
 19 21  1  0
 19 25  1  6
 20 21  1  0
 20 26  1  1
 21 24  1  6
 29 30  1  0
 29 31  1  0
 30 32  1  0
 33 31  1  6
 32 34  1  0
 33 35  1  0
 33 34  1  0
 34 37  1  0
 34 51  1  1
 35 36  1  0
 38 36  1  6
 37 39  1  1
 37 38  1  0
 38 41  1  0
 39 40  1  0
 40 42  1  0
 40 55  1  1
 41 43  1  0
 41 42  1  0
 41 52  1  1
 42 44  1  0
 42 53  1  1
 43 45  1  0
 44 45  1  1
 44 46  1  0
 46 47  2  0
 46 48  1  0
 47 49  1  0
 48 50  1  0
 49 50  1  0
 49 54  2  0
M  END
>  <Formula>  (670) 
C41H64O14

>  <FW>  (670) 
780.9385

>  <DSSTox_CID>  (670) 
2934

>  <NR-AR-LBD>  (670) 
1

>  <NR-ER>  (670) 
1

>  <NR-ER-LBD>  (670) 
1

>  <NR-AhR>  (670) 
0

>  <SR-MMP>  (670) 
1

$$$$
NCGC00015948-02
     RDKit          2D

 29 33  0  0  1  0  0  0  0  0999 V2000
    2.1409   -3.0677    0.0000 C   0  0  0  0  0  0  0  0  0  0  0  0
    2.1409   -3.8771    0.0000 C   0  0  0  0  0  0  0  0  0  0  0  0
    1.4294   -2.6434    0.0000 C   0  0  0  0  0  0  0  0  0  0  0  0
    1.4294   -4.3014    0.0000 C   0  0  0  0  0  0  0  0  0  0  0  0
    0.7310   -3.0677    0.0000 C   0  0  0  0  0  0  0  0  0  0  0  0
    0.7310   -3.8771    0.0000 C   0  0  0  0  0  0  0  0  0  0  0  0
    2.8719   -2.6434    0.0000 C   0  0  0  0  0  0  0  0  0  0  0  0
    3.5703   -3.0677    0.0000 C   0  0  0  0  0  0  0  0  0  0  0  0
    2.8719   -4.3014    0.0000 C   0  0  0  0  0  0  0  0  0  0  0  0
    3.5703   -3.8967    0.0000 C   0  0  0  0  0  0  0  0  0  0  0  0
    2.8719   -1.8276    0.0000 C   0  0  0  0  0  0  0  0  0  0  0  0
    3.5703   -1.4099    0.0000 C   0  0  0  0  0  0  0  0  0  0  0  0
    4.2883   -2.6434    0.0000 C   0  0  0  0  0  0  0  0  0  0  0  0
    4.2883   -1.8276    0.0000 C   0  0  0  0  0  0  0  0  0  0  0  0
    5.0650   -2.8980    0.0000 C   0  0  0  0  0  0  0  0  0  0  0  0
    5.5611   -2.2388    0.0000 C   0  0  0  0  0  0  0  0  0  0  0  0
    5.0650   -1.5665    0.0000 C   0  0  0  0  0  0  0  0  0  0  0  0
    4.5951   -0.9073    0.0000 C   0  0  0  0  0  0  0  0  0  0  0  0
    5.8548   -1.3119    0.0000 O   0  0  0  0  0  0  0  0  0  0  0  0
    5.0781   -0.2284    0.0000 C   0  0  0  0  0  0  0  0  0  0  0  0
    5.8548   -0.4961    0.0000 C   0  0  0  0  0  0  0  0  0  0  0  0
    4.2426   -0.9986    0.0000 C   0  0  0  0  0  0  0  0  0  0  0  0
    0.0000   -4.3014    0.0000 O   0  0  0  0  0  0  0  0  0  0  0  0
    6.5271    0.0000    0.0000 O   0  0  0  0  0  0  0  0  0  0  0  0
    2.1409   -2.2257    0.0000 C   0  0  0  0  0  0  0  0  0  0  0  0
    4.2883   -4.3014    0.0000 S   0  0  0  0  0  0  0  0  0  0  0  0
    4.2883   -5.1303    0.0000 C   0  0  0  0  0  0  0  0  0  0  0  0
    4.9998   -5.5415    0.0000 O   0  0  0  0  0  0  0  0  0  0  0  0
    3.5703   -5.5415    0.0000 C   0  0  0  0  0  0  0  0  0  0  0  0
  1  3  1  0
  1  7  1  0
  1  2  1  0
  1 25  1  1
  2  4  2  0
  2  9  1  0
  3  5  1  0
  4  6  1  0
  5  6  1  0
  6 23  2  0
  7 11  1  1
  7  8  1  0
  8 10  1  6
  8 13  1  0
  9 10  1  0
 10 26  1  6
 11 12  1  0
 12 14  1  0
 13 15  1  1
 13 14  1  0
 14 17  1  0
 14 22  1  1
 15 16  1  0
 17 16  1  6
 17 18  1  0
 17 19  1  0
 18 20  1  0
 19 21  1  0
 20 21  1  0
 21 24  2  0
 26 27  1  0
 27 28  2  0
 27 29  1  0
M  END
>  <Formula>  (671) 
C24H32O4S

>  <FW>  (671) 
416.5735

>  <DSSTox_CID>  (671) 
14186

>  <NR-Aromatase>  (671) 
1

>  <NR-AR>  (671) 
1

>  <NR-AR-LBD>  (671) 
1

>  <NR-ER>  (671) 
0

>  <NR-ER-LBD>  (671) 
0

>  <NR-AhR>  (671) 
0

>  <SR-ATAD5>  (671) 
0

$$$$
NCGC00255265-01
     RDKit          2D

 54 61  0  0  1  0  0  0  0  0999 V2000
    8.6378   -5.6722    0.0000 O   0  0  0  0  0  0  0  0  0  0  0  0
    7.9180   -5.2691    0.0000 C   0  0  0  0  0  0  0  0  0  0  0  0
    7.1982   -5.6722    0.0000 C   0  0  0  0  0  0  0  0  0  0  0  0
    7.9180   -4.4197    0.0000 O   0  0  0  0  0  0  0  0  0  0  0  0
    6.4784   -5.2691    0.0000 C   0  0  0  0  0  0  0  0  0  0  0  0
    7.1982   -4.0166    0.0000 C   0  0  0  0  0  0  0  0  0  0  0  0
    6.4784   -4.4197    0.0000 C   0  0  0  0  0  0  0  0  0  0  0  0
    5.7586   -4.0166    0.0000 O   0  0  0  0  0  0  0  0  0  0  0  0
    5.0388   -4.4197    0.0000 C   0  0  0  0  0  0  0  0  0  0  0  0
    5.0388   -5.2691    0.0000 O   0  0  0  0  0  0  0  0  0  0  0  0
    4.3189   -4.0166    0.0000 C   0  0  0  0  0  0  0  0  0  0  0  0
    4.3189   -5.6722    0.0000 C   0  0  0  0  0  0  0  0  0  0  0  0
    3.5991   -4.4197    0.0000 C   0  0  0  0  0  0  0  0  0  0  0  0
    3.5991   -5.2691    0.0000 C   0  0  0  0  0  0  0  0  0  0  0  0
    2.8793   -5.6722    0.0000 O   0  0  0  0  0  0  0  0  0  0  0  0
    2.1594   -5.2691    0.0000 C   0  0  0  0  0  0  0  0  0  0  0  0
    1.4396   -5.6722    0.0000 C   0  0  0  0  0  0  0  0  0  0  0  0
    2.1594   -4.4197    0.0000 O   0  0  0  0  0  0  0  0  0  0  0  0
    0.7198   -5.2691    0.0000 C   0  0  0  0  0  0  0  0  0  0  0  0
    1.4396   -4.0166    0.0000 C   0  0  0  0  0  0  0  0  0  0  0  0
    0.7198   -4.4197    0.0000 C   0  0  0  0  0  0  0  0  0  0  0  0
    5.7586   -5.6722    0.0000 O   0  0  0  0  0  0  0  0  0  0  0  0
    2.8793   -4.0166    0.0000 O   0  0  0  0  0  0  0  0  0  0  0  0
    0.0000   -4.0166    0.0000 O   0  0  0  0  0  0  0  0  0  0  0  0
    0.0000   -5.6722    0.0000 O   0  0  0  0  0  0  0  0  0  0  0  0
    1.4396   -3.1960    0.0000 C   0  0  0  0  0  0  0  0  0  0  0  0
    4.3189   -6.5071    0.0000 C   0  0  0  0  0  0  0  0  0  0  0  0
    7.1982   -3.1960    0.0000 C   0  0  0  0  0  0  0  0  0  0  0  0
    9.3576   -5.2691    0.0000 C   0  0  0  0  0  0  0  0  0  0  0  0
    9.3576   -4.4197    0.0000 C   0  0  0  0  0  0  0  0  0  0  0  0
   10.0774   -5.6722    0.0000 C   0  0  0  0  0  0  0  0  0  0  0  0
   10.0774   -4.0166    0.0000 C   0  0  0  0  0  0  0  0  0  0  0  0
   10.7973   -5.2691    0.0000 C   0  0  0  0  0  0  0  0  0  0  0  0
   10.7973   -4.4341    0.0000 C   0  0  0  0  0  0  0  0  0  0  0  0
   11.5171   -5.6722    0.0000 C   0  0  0  0  0  0  0  0  0  0  0  0
   12.2369   -5.2691    0.0000 C   0  0  0  0  0  0  0  0  0  0  0  0
   11.5171   -4.0166    0.0000 C   0  0  0  0  0  0  0  0  0  0  0  0
   12.2369   -4.4197    0.0000 C   0  0  0  0  0  0  0  0  0  0  0  0
   11.5171   -3.1960    0.0000 C   0  0  0  0  0  0  0  0  0  0  0  0
   12.2369   -2.7641    0.0000 C   0  0  0  0  0  0  0  0  0  0  0  0
   12.9568   -4.0166    0.0000 C   0  0  0  0  0  0  0  0  0  0  0  0
   12.9568   -3.1960    0.0000 C   0  0  0  0  0  0  0  0  0  0  0  0
   14.3964   -4.0166    0.0000 C   0  0  0  0  0  0  0  0  0  0  0  0
   13.6766   -2.7641    0.0000 C   0  0  0  0  0  0  0  0  0  0  0  0
   14.3964   -3.1960    0.0000 C   0  0  0  0  0  0  0  0  0  0  0  0
   13.6766   -1.9435    0.0000 C   0  0  0  0  0  0  0  0  0  0  0  0
   12.9999   -1.4684    0.0000 C   0  0  0  0  0  0  0  0  0  0  0  0
   14.3388   -1.4684    0.0000 C   0  0  0  0  0  0  0  0  0  0  0  0
   13.2591   -0.6622    0.0000 C   0  0  0  0  0  0  0  0  0  0  0  0
   14.0941   -0.6622    0.0000 O   0  0  0  0  0  0  0  0  0  0  0  0
   10.7973   -3.5991    0.0000 C   0  0  0  0  0  0  0  0  0  0  0  0
   12.9568   -4.8660    0.0000 O   0  0  0  0  0  0  0  0  0  0  0  0
   12.9568   -2.3610    0.0000 C   0  0  0  0  0  0  0  0  0  0  0  0
   12.7552    0.0000    0.0000 O   0  0  0  0  0  0  0  0  0  0  0  0
  2  1  1  1
 29  1  1  1
  2  3  1  0
  2  4  1  0
  3  5  1  0
  4  6  1  0
  5  7  1  0
  5 22  1  6
  6  7  1  0
  6 28  1  1
  7  8  1  6
  9  8  1  6
  9 10  1  0
  9 11  1  0
 10 12  1  0
 11 13  1  0
 12 14  1  0
 12 27  1  6
 13 14  1  0
 13 23  1  1
 14 15  1  1
 16 15  1  1
 16 17  1  0
 16 18  1  0
 17 19  1  0
 18 20  1  0
 19 21  1  0
 19 25  1  6
 20 21  1  0
 20 26  1  1
 21 24  1  6
 29 30  1  0
 29 31  1  0
 30 32  1  0
 33 31  1  6
 32 34  1  0
 33 35  1  0
 33 34  1  0
 34 37  1  0
 34 51  1  1
 35 36  1  0
 38 36  1  6
 37 39  1  1
 37 38  1  0
 38 41  1  0
 39 40  1  0
 40 42  1  0
 41 43  1  0
 41 42  1  0
 41 52  1  1
 42 44  1  0
 42 53  1  1
 43 45  1  0
 44 45  1  1
 44 46  1  0
 46 47  2  0
 46 48  1  0
 47 49  1  0
 48 50  1  0
 49 50  1  0
 49 54  2  0
M  END
>  <Formula>  (672) 
C41H64O13

>  <FW>  (672) 
764.9391

>  <DSSTox_CID>  (672) 
2933

>  <NR-AR-LBD>  (672) 
1

>  <NR-ER-LBD>  (672) 
0

>  <NR-AhR>  (672) 
0

>  <SR-HSE>  (672) 
0

>  <SR-MMP>  (672) 
1

>  <SR-p53>  (672) 
1

$$$$
NCGC00022680-04
     RDKit          2D

 28 31  0  0  1  0  0  0  0  0999 V2000
    5.4043    0.0000    0.0000 C   0  0  0  0  0  0  0  0  0  0  0  0
    4.8176   -0.5578    0.0000 C   0  0  0  0  0  0  0  0  0  0  0  0
    4.0134   -0.3477    0.0000 O   0  0  0  0  0  0  0  0  0  0  0  0
    5.0784   -1.6083    0.0000 C   0  0  0  0  0  0  0  0  0  0  0  0
    5.5565   -2.2748    0.0000 C   0  0  0  0  0  0  0  0  0  0  0  0
    5.0638   -2.9485    0.0000 C   0  0  0  0  0  0  0  0  0  0  0  0
    4.2887   -2.6877    0.0000 C   0  0  0  0  0  0  0  0  0  0  0  0
    3.5643   -3.0934    0.0000 C   0  0  0  0  0  0  0  0  0  0  0  0
    3.5643   -3.9265    0.0000 C   0  0  0  0  0  0  0  0  0  0  0  0
    2.8471   -4.3394    0.0000 C   0  0  0  0  0  0  0  0  0  0  0  0
    2.8471   -5.1652    0.0000 Cl  0  0  0  0  0  0  0  0  0  0  0  0
    2.1371   -3.9265    0.0000 C   0  0  0  0  0  0  0  0  0  0  0  0
    1.4271   -4.3394    0.0000 C   0  0  0  0  0  0  0  0  0  0  0  0
    0.7100   -3.9265    0.0000 C   0  0  0  0  0  0  0  0  0  0  0  0
    0.0000   -4.3394    0.0000 O   0  0  0  0  0  0  0  0  0  0  0  0
    0.7172   -3.0934    0.0000 C   0  0  0  0  0  0  0  0  0  0  0  0
    1.4271   -2.6877    0.0000 C   0  0  0  0  0  0  0  0  0  0  0  0
    2.1371   -3.1079    0.0000 C   0  0  0  0  0  0  0  0  0  0  0  0
    2.1516   -2.2748    0.0000 C   0  0  0  0  0  0  0  0  0  0  0  0
    2.8543   -2.6877    0.0000 C   0  0  0  0  0  0  0  0  0  0  0  0
    2.8543   -1.8691    0.0000 C   0  0  0  0  0  0  0  0  0  0  0  0
    3.5787   -1.4489    0.0000 C   0  0  0  0  0  0  0  0  0  0  0  0
    4.2887   -1.8691    0.0000 C   0  0  0  0  0  0  0  0  0  0  0  0
    4.2235   -1.0359    0.0000 C   0  0  0  0  0  0  0  0  0  0  0  0
    5.8172   -1.2605    0.0000 O   0  0  0  0  0  0  0  0  0  0  0  0
    6.4983   -1.7387    0.0000 C   0  0  0  0  0  0  0  0  0  0  0  0
    7.2444   -1.3909    0.0000 C   0  0  0  0  0  0  0  0  0  0  0  0
    6.4258   -2.5573    0.0000 O   0  0  0  0  0  0  0  0  0  0  0  0
  1  2  1  0
  2  3  2  0
  4  2  1  0
  4  5  1  0
  4 23  1  0
  4 25  1  6
  5  6  1  0
  7  6  1  1
  7  8  1  0
  7 23  1  0
  8  9  1  6
  8 20  1  0
  9 10  2  0
 10 11  1  0
 10 12  1  0
 12 13  2  0
 12 18  1  0
 13 14  1  0
 14 15  2  0
 14 16  1  0
 16 17  1  0
 17 18  1  0
 18 19  1  1
 18 20  1  0
 20 21  1  1
 21 22  1  0
 22 23  1  0
 23 24  1  1
 25 26  1  0
 26 27  1  0
 26 28  2  0
M  END
>  <Formula>  (673) 
C23H29ClO4

>  <FW>  (673) 
404.9270

>  <DSSTox_CID>  (673) 
274

>  <NR-AR>  (673) 
1

>  <NR-AR-LBD>  (673) 
1

>  <NR-ER-LBD>  (673) 
0

>  <NR-PPAR-gamma>  (673) 
0

>  <NR-AhR>  (673) 
0

>  <SR-ATAD5>  (673) 
0

>  <SR-p53>  (673) 
1

$$$$
NCGC00016566-01
     RDKit          2D

 31 34  0  0  1  0  0  0  0  0999 V2000
    4.3041   -1.6524    0.0000 C   0  0  0  0  0  0  0  0  0  0  0  0
    2.8775   -2.4906    0.0000 C   0  0  0  0  0  0  0  0  0  0  0  0
    2.1682   -2.8936    0.0000 C   0  0  0  0  0  0  0  0  0  0  0  0
    4.3041   -2.4906    0.0000 C   0  0  0  0  0  0  0  0  0  0  0  0
    5.0941   -1.3944    0.0000 C   0  0  0  0  0  0  0  0  0  0  0  0
    3.5949   -2.8936    0.0000 C   0  0  0  0  0  0  0  0  0  0  0  0
    2.1682   -3.7158    0.0000 C   0  0  0  0  0  0  0  0  0  0  0  0
    2.8775   -1.6524    0.0000 C   0  0  0  0  0  0  0  0  0  0  0  0
    3.5949   -1.2413    0.0000 C   0  0  0  0  0  0  0  0  0  0  0  0
    5.5777   -2.0554    0.0000 C   0  0  0  0  0  0  0  0  0  0  0  0
    1.4669   -2.4906    0.0000 C   0  0  0  0  0  0  0  0  0  0  0  0
    5.0941   -2.7244    0.0000 C   0  0  0  0  0  0  0  0  0  0  0  0
    5.3198   -0.5965    0.0000 C   0  0  0  0  0  0  0  0  0  0  0  0
    1.4669   -4.1188    0.0000 C   0  0  0  0  0  0  0  0  0  0  0  0
    3.5949   -3.7158    0.0000 C   0  0  0  0  0  0  0  0  0  0  0  0
    0.7335   -2.8936    0.0000 C   0  0  0  0  0  0  0  0  0  0  0  0
    0.7335   -3.7158    0.0000 C   0  0  0  0  0  0  0  0  0  0  0  0
    2.8775   -4.1188    0.0000 C   0  0  0  0  0  0  0  0  0  0  0  0
    2.8695   -3.1919    0.0000 F   0  0  0  0  0  0  0  0  0  0  0  0
    6.1177   -0.3869    0.0000 C   0  0  0  0  0  0  0  0  0  0  0  0
    4.7314    0.0000    0.0000 O   0  0  0  0  0  0  0  0  0  0  0  0
    6.6981   -0.9914    0.0000 O   0  0  0  0  0  0  0  0  0  0  0  0
    0.0000   -4.1510    0.0000 O   0  0  0  0  0  0  0  0  0  0  0  0
    5.9404   -1.3944    0.0000 O   0  0  0  0  0  0  0  0  0  0  0  0
    4.3041   -0.8222    0.0000 C   0  0  0  0  0  0  0  0  0  0  0  0
    2.1521   -1.2332    0.0000 O   0  0  0  0  0  0  0  0  0  0  0  0
    2.1682   -2.0554    0.0000 C   0  0  0  0  0  0  0  0  0  0  0  0
    6.4159   -2.0554    0.0000 C   0  0  0  0  0  0  0  0  0  0  0  0
    7.5041   -0.7899    0.0000 C   0  0  0  0  0  0  0  0  0  0  0  0
    7.7217   -0.0081    0.0000 O   0  0  0  0  0  0  0  0  0  0  0  0
    8.0602   -1.4025    0.0000 C   0  0  0  0  0  0  0  0  0  0  0  0
  1  4  1  0
  1  5  1  0
  1  9  1  0
  1 25  1  1
  2  8  1  0
  2  3  1  0
  2 19  1  6
  2  6  1  0
  3  7  1  0
  3 11  1  0
  3 27  1  1
  4  6  1  0
  4 12  1  1
  5 10  1  0
  5 13  1  0
  5 24  1  6
  6 15  1  6
  7 14  2  0
  7 18  1  0
  8  9  1  0
  8 26  1  1
 10 28  1  6
 10 12  1  0
 11 16  2  0
 13 20  1  0
 13 21  2  0
 14 17  1  0
 15 18  1  0
 16 17  1  0
 17 23  2  0
 20 22  1  0
 22 29  1  0
 29 30  2  0
 29 31  1  0
M  END
>  <Formula>  (674) 
C24H31FO6

>  <FW>  (674) 
434.4977

>  <DSSTox_CID>  (674) 
2901

>  <NR-AR>  (674) 
1

>  <NR-AR-LBD>  (674) 
1

>  <NR-ER>  (674) 
0

>  <NR-PPAR-gamma>  (674) 
0

>  <SR-MMP>  (674) 
0

>  <SR-p53>  (674) 
0

$$$$
NCGC00094596-03
     RDKit          2D

 36 39  0  0  1  0  0  0  0  0999 V2000
    4.3093   -3.5531    0.0000 C   0  0  0  0  0  0  0  0  0  0  0  0
    2.8778   -4.3901    0.0000 C   0  0  0  0  0  0  0  0  0  0  0  0
    2.1583   -4.7938    0.0000 C   0  0  0  0  0  0  0  0  0  0  0  0
    4.3093   -4.3901    0.0000 C   0  0  0  0  0  0  0  0  0  0  0  0
    3.5825   -4.7938    0.0000 C   0  0  0  0  0  0  0  0  0  0  0  0
    5.0948   -3.3036    0.0000 C   0  0  0  0  0  0  0  0  0  0  0  0
    2.1583   -5.6234    0.0000 C   0  0  0  0  0  0  0  0  0  0  0  0
    2.8778   -3.5531    0.0000 C   0  0  0  0  0  0  0  0  0  0  0  0
    3.5825   -3.1568    0.0000 C   0  0  0  0  0  0  0  0  0  0  0  0
    5.5720   -3.9716    0.0000 C   0  0  0  0  0  0  0  0  0  0  0  0
    1.4536   -4.3901    0.0000 C   0  0  0  0  0  0  0  0  0  0  0  0
    5.0948   -4.6397    0.0000 C   0  0  0  0  0  0  0  0  0  0  0  0
    1.4536   -6.0492    0.0000 C   0  0  0  0  0  0  0  0  0  0  0  0
    5.0948   -2.4813    0.0000 C   0  0  0  0  0  0  0  0  0  0  0  0
    3.5825   -5.6234    0.0000 C   0  0  0  0  0  0  0  0  0  0  0  0
    0.7341   -4.7938    0.0000 C   0  0  0  0  0  0  0  0  0  0  0  0
    0.7341   -5.6234    0.0000 C   0  0  0  0  0  0  0  0  0  0  0  0
    2.8778   -6.0492    0.0000 C   0  0  0  0  0  0  0  0  0  0  0  0
    2.8631   -5.0728    0.0000 Cl  0  0  0  0  0  0  0  0  0  0  0  0
    4.3680   -2.0629    0.0000 O   0  0  0  0  0  0  0  0  0  0  0  0
    0.0000   -6.0492    0.0000 O   0  0  0  0  0  0  0  0  0  0  0  0
    5.9097   -3.3036    0.0000 O   0  0  0  0  0  0  0  0  0  0  0  0
    4.3093   -2.7236    0.0000 C   0  0  0  0  0  0  0  0  0  0  0  0
    2.1510   -3.1274    0.0000 O   0  0  0  0  0  0  0  0  0  0  0  0
    2.1583   -3.9716    0.0000 C   0  0  0  0  0  0  0  0  0  0  0  0
    6.4750   -3.9716    0.0000 C   0  0  0  0  0  0  0  0  0  0  0  0
    5.8069   -2.0629    0.0000 C   0  0  0  0  0  0  0  0  0  0  0  0
    5.8069   -1.2480    0.0000 O   0  0  0  0  0  0  0  0  0  0  0  0
    5.0948   -0.8295    0.0000 C   0  0  0  0  0  0  0  0  0  0  0  0
    5.0948    0.0000    0.0000 O   0  0  0  0  0  0  0  0  0  0  0  0
    4.3901   -1.2480    0.0000 C   0  0  0  0  0  0  0  0  0  0  0  0
    3.6633   -0.8295    0.0000 C   0  0  0  0  0  0  0  0  0  0  0  0
    6.6218   -2.8924    0.0000 C   0  0  0  0  0  0  0  0  0  0  0  0
    7.3339   -3.3109    0.0000 O   0  0  0  0  0  0  0  0  0  0  0  0
    6.6218   -2.0629    0.0000 C   0  0  0  0  0  0  0  0  0  0  0  0
    7.3413   -1.6591    0.0000 C   0  0  0  0  0  0  0  0  0  0  0  0
  1  4  1  0
  1  6  1  0
  1  9  1  0
  1 23  1  1
  2  8  1  0
  2  3  1  0
  2 19  1  6
  2  5  1  0
  3  7  1  0
  3 11  1  0
  3 25  1  1
  4  5  1  0
  4 12  1  1
  5 15  1  6
  6 10  1  0
  6 14  1  0
  6 22  1  6
  7 13  2  0
  7 18  1  0
  8  9  1  0
  8 24  1  1
 10 26  1  1
 10 12  1  0
 11 16  2  0
 13 17  1  0
 14 20  2  0
 14 27  1  0
 15 18  1  0
 16 17  1  0
 17 21  2  0
 22 33  1  0
 27 28  1  0
 28 29  1  0
 29 30  2  0
 29 31  1  0
 31 32  1  0
 33 34  2  0
 33 35  1  0
 35 36  1  0
M  END
>  <Formula>  (675) 
C28H37ClO7

>  <FW>  (675) 
521.0422

>  <DSSTox_CID>  (675) 
28656

>  <NR-AR>  (675) 
1

>  <NR-AR-LBD>  (675) 
1

>  <NR-ER>  (675) 
0

>  <SR-ATAD5>  (675) 
0

>  <SR-MMP>  (675) 
1

>  <SR-p53>  (675) 
0

$$$$
NCGC00183124-01
     RDKit          2D

 33 36  0  0  1  0  0  0  0  0999 V2000
    4.3032   -3.5720    0.0000 C   0  0  0  0  0  0  0  0  0  0  0  0
    4.3032   -4.3970    0.0000 C   0  0  0  0  0  0  0  0  0  0  0  0
    5.0907   -3.3095    0.0000 C   0  0  0  0  0  0  0  0  0  0  0  0
    3.5814   -3.1501    0.0000 C   0  0  0  0  0  0  0  0  0  0  0  0
    3.5814   -4.8095    0.0000 C   0  0  0  0  0  0  0  0  0  0  0  0
    5.0907   -4.6501    0.0000 C   0  0  0  0  0  0  0  0  0  0  0  0
    5.5783   -3.9845    0.0000 C   0  0  0  0  0  0  0  0  0  0  0  0
    5.0907   -2.4845    0.0000 C   0  0  0  0  0  0  0  0  0  0  0  0
    5.7939   -2.8969    0.0000 O   0  0  0  0  0  0  0  0  0  0  0  0
    2.8688   -3.5720    0.0000 C   0  0  0  0  0  0  0  0  0  0  0  0
    2.8688   -4.3970    0.0000 C   0  0  0  0  0  0  0  0  0  0  0  0
    3.5814   -5.6251    0.0000 C   0  0  0  0  0  0  0  0  0  0  0  0
    5.7939   -2.0625    0.0000 C   0  0  0  0  0  0  0  0  0  0  0  0
    4.3595   -2.0625    0.0000 O   0  0  0  0  0  0  0  0  0  0  0  0
    2.1563   -3.1501    0.0000 O   0  0  0  0  0  0  0  0  0  0  0  0
    2.1563   -4.8095    0.0000 C   0  0  0  0  0  0  0  0  0  0  0  0
    2.8688   -6.0564    0.0000 C   0  0  0  0  0  0  0  0  0  0  0  0
    5.7939   -1.2375    0.0000 O   0  0  0  0  0  0  0  0  0  0  0  0
    2.1563   -5.6251    0.0000 C   0  0  0  0  0  0  0  0  0  0  0  0
    1.4438   -4.3970    0.0000 C   0  0  0  0  0  0  0  0  0  0  0  0
    2.1563   -3.9845    0.0000 C   0  0  0  0  0  0  0  0  0  0  0  0
    6.5158   -0.8344    0.0000 C   0  0  0  0  0  0  0  0  0  0  0  0
    1.4438   -6.0564    0.0000 C   0  0  0  0  0  0  0  0  0  0  0  0
    0.7219   -4.8095    0.0000 C   0  0  0  0  0  0  0  0  0  0  0  0
    7.2283   -1.2375    0.0000 C   0  0  0  0  0  0  0  0  0  0  0  0
    6.5158    0.0000    0.0000 O   0  0  0  0  0  0  0  0  0  0  0  0
    0.7219   -5.6251    0.0000 C   0  0  0  0  0  0  0  0  0  0  0  0
    7.9408   -0.8344    0.0000 C   0  0  0  0  0  0  0  0  0  0  0  0
    0.0000   -6.0564    0.0000 O   0  0  0  0  0  0  0  0  0  0  0  0
    8.6627   -1.2375    0.0000 C   0  0  0  0  0  0  0  0  0  0  0  0
    8.6627   -2.0625    0.0000 O   0  0  0  0  0  0  0  0  0  0  0  0
    9.3752   -0.8344    0.0000 O   0  0  0  0  0  0  0  0  0  0  0  0
    4.3032   -2.7470    0.0000 C   0  0  0  0  0  0  0  0  0  0  0  0
  1  2  1  0
  1  3  1  0
  1  4  1  0
  1 33  1  1
  2  5  1  0
  2  6  1  1
  3  7  1  0
  3  8  1  0
  3  9  1  6
  4 10  1  0
  5 11  1  0
  5 12  1  6
  6  7  1  0
  8 13  1  0
  8 14  2  0
 10 15  1  1
 11 10  1  1
 11 16  1  0
 12 17  1  0
 13 18  1  0
 16 19  1  0
 16 20  1  0
 16 21  1  1
 17 19  1  0
 18 22  1  0
 19 23  2  0
 20 24  2  0
 22 25  1  0
 22 26  2  0
 23 27  1  0
 24 27  1  0
 25 28  1  0
 27 29  2  0
 28 30  1  0
 30 31  1  0
 30 32  2  0
M  END
>  <Formula>  (676) 
C25H32O8

>  <FW>  (676) 
460.5168

>  <DSSTox_CID>  (676) 
28890

>  <NR-AR>  (676) 
1

>  <NR-AR-LBD>  (676) 
1

>  <NR-ER-LBD>  (676) 
0

>  <NR-PPAR-gamma>  (676) 
0

>  <SR-MMP>  (676) 
0

>  <SR-p53>  (676) 
0

$$$$
NCGC00016926-01
     RDKit          2D

 35 38  0  0  1  0  0  0  0  0999 V2000
    4.3463   -1.8882    0.0000 C   0  0  0  0  0  0  0  0  0  0  0  0
    5.1032   -1.6245    0.0000 C   0  0  0  0  0  0  0  0  0  0  0  0
    2.1943   -3.0619    0.0000 C   0  0  0  0  0  0  0  0  0  0  0  0
    3.6573   -3.0619    0.0000 C   0  0  0  0  0  0  0  0  0  0  0  0
    4.3463   -2.6792    0.0000 C   0  0  0  0  0  0  0  0  0  0  0  0
    2.9258   -2.6962    0.0000 C   0  0  0  0  0  0  0  0  0  0  0  0
    2.1943   -3.9039    0.0000 C   0  0  0  0  0  0  0  0  0  0  0  0
    3.6233   -1.4714    0.0000 C   0  0  0  0  0  0  0  0  0  0  0  0
    2.9258   -1.8967    0.0000 C   0  0  0  0  0  0  0  0  0  0  0  0
    1.4544   -2.6962    0.0000 C   0  0  0  0  0  0  0  0  0  0  0  0
    5.3158   -0.8335    0.0000 C   0  0  0  0  0  0  0  0  0  0  0  0
    1.4544   -4.3547    0.0000 C   0  0  0  0  0  0  0  0  0  0  0  0
    5.8092   -1.6245    0.0000 O   0  0  0  0  0  0  0  0  0  0  0  0
    6.2514   -2.3220    0.0000 C   0  0  0  0  0  0  0  0  0  0  0  0
    5.5965   -2.2709    0.0000 C   0  0  0  0  0  0  0  0  0  0  0  0
    5.1032   -2.9003    0.0000 C   0  0  0  0  0  0  0  0  0  0  0  0
    3.6573   -3.9039    0.0000 C   0  0  0  0  0  0  0  0  0  0  0  0
    0.7314   -3.0619    0.0000 C   0  0  0  0  0  0  0  0  0  0  0  0
    0.7314   -3.9039    0.0000 C   0  0  0  0  0  0  0  0  0  0  0  0
    2.9258   -4.3547    0.0000 C   0  0  0  0  0  0  0  0  0  0  0  0
    7.5102   -1.0121    0.0000 C   0  0  0  0  0  0  0  0  0  0  0  0
    6.1408   -0.6379    0.0000 C   0  0  0  0  0  0  0  0  0  0  0  0
    7.0935   -2.3220    0.0000 O   0  0  0  0  0  0  0  0  0  0  0  0
    4.7205   -0.2211    0.0000 O   0  0  0  0  0  0  0  0  0  0  0  0
    6.7022   -1.2248    0.0000 O   0  0  0  0  0  0  0  0  0  0  0  0
    8.1311   -1.5820    0.0000 O   0  0  0  0  0  0  0  0  0  0  0  0
    0.0000   -4.3547    0.0000 O   0  0  0  0  0  0  0  0  0  0  0  0
    4.3463   -1.0632    0.0000 C   0  0  0  0  0  0  0  0  0  0  0  0
    2.1859   -1.4714    0.0000 O   0  0  0  0  0  0  0  0  0  0  0  0
    5.8092   -3.0024    0.0000 O   0  0  0  0  0  0  0  0  0  0  0  0
    2.1943   -2.2709    0.0000 C   0  0  0  0  0  0  0  0  0  0  0  0
    7.8079   -0.2211    0.0000 C   0  0  0  0  0  0  0  0  0  0  0  0
    6.2514   -3.7338    0.0000 C   0  0  0  0  0  0  0  0  0  0  0  0
    8.5053    0.0000    0.0000 C   0  0  0  0  0  0  0  0  0  0  0  0
    5.8092   -4.4653    0.0000 C   0  0  0  0  0  0  0  0  0  0  0  0
  1  2  1  0
  1  5  1  0
  1  8  1  0
  1 28  1  1
  2 11  1  0
  2 13  1  6
  2 15  1  0
  3  6  1  0
  3  7  1  0
  3 10  1  0
  3 31  1  1
  4  5  1  0
  4 17  1  6
  4  6  1  0
  5 16  1  1
  6  9  1  1
  7 12  2  0
  7 20  1  0
  8  9  1  0
  9 29  1  1
 10 18  2  0
 11 22  1  0
 11 24  2  0
 12 19  1  0
 13 14  1  0
 14 23  2  0
 14 30  1  0
 15 16  1  0
 17 20  1  0
 18 19  1  0
 19 27  2  0
 21 25  1  0
 21 26  2  0
 21 32  1  0
 22 25  1  0
 30 33  1  0
 32 34  1  0
 33 35  1  0
M  END
>  <Formula>  (677) 
C27H36O8

>  <FW>  (677) 
488.5699

>  <DSSTox_CID>  (677) 
25502

>  <NR-AR>  (677) 
1

>  <NR-AR-LBD>  (677) 
1

>  <NR-ER>  (677) 
0

>  <NR-ER-LBD>  (677) 
0

>  <SR-ATAD5>  (677) 
0

>  <SR-p53>  (677) 
0

$$$$
NCGC00167451-01
     RDKit          2D

 33 36  0  0  1  0  0  0  0  0999 V2000
    4.2813   -1.5845    0.0000 C   0  0  0  0  0  0  0  0  0  0  0  0
    2.8649   -2.3927    0.0000 C   0  0  0  0  0  0  0  0  0  0  0  0
    2.1446   -2.8088    0.0000 C   0  0  0  0  0  0  0  0  0  0  0  0
    4.2813   -2.3927    0.0000 C   0  0  0  0  0  0  0  0  0  0  0  0
    3.5691   -2.8088    0.0000 C   0  0  0  0  0  0  0  0  0  0  0  0
    5.0655   -1.3204    0.0000 C   0  0  0  0  0  0  0  0  0  0  0  0
    2.1446   -3.6411    0.0000 C   0  0  0  0  0  0  0  0  0  0  0  0
    2.8649   -1.5845    0.0000 C   0  0  0  0  0  0  0  0  0  0  0  0
    3.5691   -1.1603    0.0000 C   0  0  0  0  0  0  0  0  0  0  0  0
    5.5537   -1.9926    0.0000 C   0  0  0  0  0  0  0  0  0  0  0  0
    1.4564   -2.3927    0.0000 C   0  0  0  0  0  0  0  0  0  0  0  0
    5.0655   -2.6488    0.0000 C   0  0  0  0  0  0  0  0  0  0  0  0
    1.4564   -4.0572    0.0000 C   0  0  0  0  0  0  0  0  0  0  0  0
    5.0655   -0.4882    0.0000 C   0  0  0  0  0  0  0  0  0  0  0  0
    3.5691   -3.6411    0.0000 C   0  0  0  0  0  0  0  0  0  0  0  0
    0.7282   -2.8088    0.0000 C   0  0  0  0  0  0  0  0  0  0  0  0
    0.7282   -3.6411    0.0000 C   0  0  0  0  0  0  0  0  0  0  0  0
    2.8649   -4.0572    0.0000 C   0  0  0  0  0  0  0  0  0  0  0  0
    2.8489   -3.1049    0.0000 F   0  0  0  0  0  0  0  0  0  0  0  0
    0.0000   -4.0572    0.0000 O   0  0  0  0  0  0  0  0  0  0  0  0
    5.8658   -1.3044    0.0000 O   0  0  0  0  0  0  0  0  0  0  0  0
    4.2813   -0.7522    0.0000 C   0  0  0  0  0  0  0  0  0  0  0  0
    2.1367   -1.1603    0.0000 O   0  0  0  0  0  0  0  0  0  0  0  0
    2.1446   -1.9926    0.0000 C   0  0  0  0  0  0  0  0  0  0  0  0
    6.3779   -1.9766    0.0000 C   0  0  0  0  0  0  0  0  0  0  0  0
    4.3293   -0.1521    0.0000 C   0  0  0  0  0  0  0  0  0  0  0  0
    3.6571   -0.6482    0.0000 Cl  0  0  0  0  0  0  0  0  0  0  0  0
    2.8649   -4.8735    0.0000 F   0  0  0  0  0  0  0  0  0  0  0  0
    6.5860   -0.8803    0.0000 C   0  0  0  0  0  0  0  0  0  0  0  0
    5.7377    0.0000    0.0000 O   0  0  0  0  0  0  0  0  0  0  0  0
    7.2902   -1.3044    0.0000 C   0  0  0  0  0  0  0  0  0  0  0  0
    8.0024   -0.8803    0.0000 C   0  0  0  0  0  0  0  0  0  0  0  0
    6.5860   -0.0720    0.0000 O   0  0  0  0  0  0  0  0  0  0  0  0
  1  4  1  0
  1  6  1  0
  1  9  1  0
  1 22  1  1
  2  8  1  0
  2  3  1  0
  2 19  1  6
  2  5  1  0
  3  7  1  0
  3 11  1  0
  3 24  1  1
  4  5  1  0
  4 12  1  1
  5 15  1  6
  6 10  1  0
  6 14  1  0
  6 21  1  6
  7 13  2  0
  7 18  1  0
  8  9  1  0
  8 23  1  1
 10 25  1  1
 10 12  1  0
 11 16  2  0
 13 17  1  0
 14 30  2  0
 14 26  1  0
 15 18  1  0
 16 17  1  0
 17 20  2  0
 18 28  1  6
 21 29  1  0
 26 27  1  0
 29 31  1  0
 29 33  2  0
 31 32  1  0
M  END
>  <Formula>  (678) 
C25H31ClF2O5

>  <FW>  (678) 
484.9604

>  <DSSTox_CID>  (678) 
26636

>  <NR-AR>  (678) 
1

>  <NR-AR-LBD>  (678) 
1

>  <NR-ER>  (678) 
0

>  <SR-ATAD5>  (678) 
0

>  <SR-MMP>  (678) 
1

>  <SR-p53>  (678) 
0

$$$$
NCGC00255970-01
     RDKit          2D

 41 46  0  0  1  0  0  0  0  0999 V2000
    7.1998   -3.1445    0.0000 C   0  0  0  0  0  0  0  0  0  0  0  0
    7.1998   -3.9607    0.0000 C   0  0  0  0  0  0  0  0  0  0  0  0
    5.7564   -3.9607    0.0000 C   0  0  0  0  0  0  0  0  0  0  0  0
    6.4867   -4.3645    0.0000 C   0  0  0  0  0  0  0  0  0  0  0  0
    5.0433   -4.3645    0.0000 C   0  0  0  0  0  0  0  0  0  0  0  0
    6.4867   -2.7321    0.0000 C   0  0  0  0  0  0  0  0  0  0  0  0
    5.7564   -3.1445    0.0000 C   0  0  0  0  0  0  0  0  0  0  0  0
    6.4867   -5.1893    0.0000 C   0  0  0  0  0  0  0  0  0  0  0  0
    5.0433   -5.1893    0.0000 C   0  0  0  0  0  0  0  0  0  0  0  0
    5.7564   -5.6275    0.0000 C   0  0  0  0  0  0  0  0  0  0  0  0
    7.1998   -2.2940    0.0000 C   0  0  0  0  0  0  0  0  0  0  0  0
    5.0433   -3.5483    0.0000 C   0  0  0  0  0  0  0  0  0  0  0  0
    4.3387   -3.9607    0.0000 C   0  0  0  0  0  0  0  0  0  0  0  0
    4.3387   -5.6275    0.0000 C   0  0  0  0  0  0  0  0  0  0  0  0
    3.6170   -4.3645    0.0000 C   0  0  0  0  0  0  0  0  0  0  0  0
    3.6170   -5.1893    0.0000 C   0  0  0  0  0  0  0  0  0  0  0  0
    7.1998   -4.8027    0.0000 O   0  0  0  0  0  0  0  0  0  0  0  0
    8.5915   -3.9607    0.0000 C   0  0  0  0  0  0  0  0  0  0  0  0
    7.8956   -2.7321    0.0000 C   0  0  0  0  0  0  0  0  0  0  0  0
    8.5915   -3.1445    0.0000 C   0  0  0  0  0  0  0  0  0  0  0  0
    7.8956   -1.9159    0.0000 C   0  0  0  0  0  0  0  0  0  0  0  0
    7.2255   -1.4348    0.0000 C   0  0  0  0  0  0  0  0  0  0  0  0
    8.5658   -1.4348    0.0000 C   0  0  0  0  0  0  0  0  0  0  0  0
    7.4919   -0.6530    0.0000 C   0  0  0  0  0  0  0  0  0  0  0  0
    8.2995   -0.6530    0.0000 O   0  0  0  0  0  0  0  0  0  0  0  0
    6.9935    0.0000    0.0000 O   0  0  0  0  0  0  0  0  0  0  0  0
    5.0347   -2.7321    0.0000 O   0  0  0  0  0  0  0  0  0  0  0  0
    4.3387   -3.1360    0.0000 O   0  0  0  0  0  0  0  0  0  0  0  0
    3.6256   -3.5483    0.0000 O   0  0  0  0  0  0  0  0  0  0  0  0
    2.8868   -5.6533    0.0000 O   0  0  0  0  0  0  0  0  0  0  0  0
    2.1651   -5.2322    0.0000 C   0  0  0  0  0  0  0  0  0  0  0  0
    1.4434   -5.6447    0.0000 C   0  0  0  0  0  0  0  0  0  0  0  0
    2.1651   -4.3903    0.0000 O   0  0  0  0  0  0  0  0  0  0  0  0
    0.7217   -5.2151    0.0000 C   0  0  0  0  0  0  0  0  0  0  0  0
    1.4520   -3.9607    0.0000 C   0  0  0  0  0  0  0  0  0  0  0  0
    0.7217   -4.3817    0.0000 C   0  0  0  0  0  0  0  0  0  0  0  0
    1.4520   -3.1360    0.0000 C   0  0  0  0  0  0  0  0  0  0  0  0
    0.0000   -3.9607    0.0000 O   0  0  0  0  0  0  0  0  0  0  0  0
    0.0000   -5.6361    0.0000 O   0  0  0  0  0  0  0  0  0  0  0  0
    1.4434   -6.4695    0.0000 O   0  0  0  0  0  0  0  0  0  0  0  0
    5.0433   -6.0227    0.0000 O   0  0  0  0  0  0  0  0  0  0  0  0
  1  6  1  0
  1 11  1  1
  1  2  1  0
  1 19  1  0
  2  4  1  0
  2 17  1  1
  2 18  1  0
  3  7  1  1
  3  5  1  0
  3  4  1  0
  4  8  1  6
  5  9  1  0
  5 12  1  1
  5 13  1  0
  6  7  1  0
  7 27  1  6
  8 10  1  0
  9 14  1  0
  9 10  1  0
  9 41  1  1
 12 28  1  0
 13 15  1  0
 13 29  1  1
 14 16  1  0
 15 16  1  0
 16 30  1  1
 18 20  1  0
 19 20  1  1
 19 21  1  0
 21 22  2  0
 21 23  1  0
 22 24  1  0
 23 25  1  0
 24 25  1  0
 24 26  2  0
 31 30  1  1
 31 32  1  0
 31 33  1  0
 32 34  1  0
 32 40  1  6
 33 35  1  0
 34 36  1  0
 34 39  1  6
 35 36  1  0
 35 37  1  6
 36 38  1  1
M  END
>  <Formula>  (679) 
C29H44O12

>  <FW>  (679) 
584.6525

>  <DSSTox_CID>  (679) 
23765

>  <NR-Aromatase>  (679) 
1

>  <NR-AR-LBD>  (679) 
1

>  <NR-ER-LBD>  (679) 
0

>  <NR-AhR>  (679) 
0

>  <SR-HSE>  (679) 
0

>  <SR-MMP>  (679) 
1

>  <SR-p53>  (679) 
0

$$$$
NCGC00259376-01
     RDKit          2D

 31 35  0  0  1  0  0  0  0  0999 V2000
    5.1538   -2.1009    0.0000 C   0  0  0  0  0  0  0  0  0  0  0  0
    4.3477   -2.3582    0.0000 C   0  0  0  0  0  0  0  0  0  0  0  0
    5.6426   -2.7441    0.0000 C   0  0  0  0  0  0  0  0  0  0  0  0
    5.6426   -1.4578    0.0000 O   0  0  0  0  0  0  0  0  0  0  0  0
    4.9223   -1.3377    0.0000 C   0  0  0  0  0  0  0  0  0  0  0  0
    4.3477   -3.1386    0.0000 C   0  0  0  0  0  0  0  0  0  0  0  0
    3.6360   -1.9638    0.0000 C   0  0  0  0  0  0  0  0  0  0  0  0
    4.3820   -1.7408    0.0000 C   0  0  0  0  0  0  0  0  0  0  0  0
    5.1538   -3.3872    0.0000 C   0  0  0  0  0  0  0  0  0  0  0  0
    6.4401   -2.4954    0.0000 O   0  0  0  0  0  0  0  0  0  0  0  0
    6.4401   -1.7065    0.0000 C   0  0  0  0  0  0  0  0  0  0  0  0
    5.5053   -0.7547    0.0000 C   0  0  0  0  0  0  0  0  0  0  0  0
    4.1247   -1.1405    0.0000 O   0  0  0  0  0  0  0  0  0  0  0  0
    3.6360   -3.5502    0.0000 C   0  0  0  0  0  0  0  0  0  0  0  0
    2.8985   -2.3582    0.0000 C   0  0  0  0  0  0  0  0  0  0  0  0
    7.1175   -1.2348    0.0000 C   0  0  0  0  0  0  0  0  0  0  0  0
    5.2738    0.0000    0.0000 O   0  0  0  0  0  0  0  0  0  0  0  0
    2.8985   -3.1386    0.0000 C   0  0  0  0  0  0  0  0  0  0  0  0
    3.6360   -4.3391    0.0000 C   0  0  0  0  0  0  0  0  0  0  0  0
    2.1781   -1.9638    0.0000 O   0  0  0  0  0  0  0  0  0  0  0  0
    7.8893   -1.5607    0.0000 C   0  0  0  0  0  0  0  0  0  0  0  0
    2.1781   -3.5502    0.0000 C   0  0  0  0  0  0  0  0  0  0  0  0
    2.8985   -4.7421    0.0000 C   0  0  0  0  0  0  0  0  0  0  0  0
    8.5753   -1.0891    0.0000 C   0  0  0  0  0  0  0  0  0  0  0  0
    2.1781   -4.3391    0.0000 C   0  0  0  0  0  0  0  0  0  0  0  0
    1.4492   -3.1386    0.0000 C   0  0  0  0  0  0  0  0  0  0  0  0
    2.1781   -2.7441    0.0000 C   0  0  0  0  0  0  0  0  0  0  0  0
    1.4492   -4.7421    0.0000 C   0  0  0  0  0  0  0  0  0  0  0  0
    0.7203   -3.5502    0.0000 C   0  0  0  0  0  0  0  0  0  0  0  0
    0.7203   -4.3391    0.0000 C   0  0  0  0  0  0  0  0  0  0  0  0
    0.0000   -4.7421    0.0000 O   0  0  0  0  0  0  0  0  0  0  0  0
  1  2  1  0
  1  3  1  0
  1  4  1  0
  1  5  1  1
  2  6  1  0
  2  7  1  0
  2  8  1  1
  3  9  1  6
  3 10  1  0
  4 11  1  0
  5 12  1  0
  5 13  2  0
  6 14  1  0
  6  9  1  1
  7 15  1  0
 10 11  1  0
 11 16  1  6
 12 17  1  0
 14 18  1  0
 14 19  1  6
 15 20  1  1
 18 15  1  1
 16 21  1  0
 18 22  1  0
 19 23  1  0
 21 24  1  0
 22 25  1  0
 22 26  1  0
 22 27  1  1
 23 25  1  0
 25 28  2  0
 26 29  2  0
 28 30  1  0
 29 30  1  0
 30 31  2  0
M  END
>  <Formula>  (680) 
C25H34O6

>  <FW>  (680) 
430.5339

>  <DSSTox_CID>  (680) 
202

>  <NR-AR>  (680) 
1

>  <NR-AR-LBD>  (680) 
1

>  <NR-ER-LBD>  (680) 
0

>  <SR-ATAD5>  (680) 
0

>  <SR-HSE>  (680) 
0

>  <SR-p53>  (680) 
0

$$$$
NCGC00255229-01
     RDKit          2D

 29 33  0  0  1  0  0  0  0  0999 V2000
    2.1409   -3.0677    0.0000 C   0  0  0  0  0  0  0  0  0  0  0  0
    2.1409   -3.8771    0.0000 C   0  0  0  0  0  0  0  0  0  0  0  0
    1.4294   -2.6434    0.0000 C   0  0  0  0  0  0  0  0  0  0  0  0
    1.4294   -4.3014    0.0000 C   0  0  0  0  0  0  0  0  0  0  0  0
    0.7310   -3.0677    0.0000 C   0  0  0  0  0  0  0  0  0  0  0  0
    0.7310   -3.8771    0.0000 C   0  0  0  0  0  0  0  0  0  0  0  0
    2.8719   -2.6434    0.0000 C   0  0  0  0  0  0  0  0  0  0  0  0
    3.5703   -3.0677    0.0000 C   0  0  0  0  0  0  0  0  0  0  0  0
    2.8719   -4.3014    0.0000 C   0  0  0  0  0  0  0  0  0  0  0  0
    3.5703   -3.8967    0.0000 C   0  0  0  0  0  0  0  0  0  0  0  0
    2.8719   -1.8276    0.0000 C   0  0  0  0  0  0  0  0  0  0  0  0
    3.5703   -1.4099    0.0000 C   0  0  0  0  0  0  0  0  0  0  0  0
    4.2883   -2.6434    0.0000 C   0  0  0  0  0  0  0  0  0  0  0  0
    4.2883   -1.8276    0.0000 C   0  0  0  0  0  0  0  0  0  0  0  0
    5.0650   -2.8980    0.0000 C   0  0  0  0  0  0  0  0  0  0  0  0
    5.5611   -2.2388    0.0000 C   0  0  0  0  0  0  0  0  0  0  0  0
    5.0650   -1.5665    0.0000 C   0  0  0  0  0  0  0  0  0  0  0  0
    4.5951   -0.9073    0.0000 C   0  0  0  0  0  0  0  0  0  0  0  0
    5.8548   -1.3119    0.0000 O   0  0  0  0  0  0  0  0  0  0  0  0
    5.0781   -0.2284    0.0000 C   0  0  0  0  0  0  0  0  0  0  0  0
    5.8548   -0.4961    0.0000 C   0  0  0  0  0  0  0  0  0  0  0  0
    4.2426   -0.9986    0.0000 C   0  0  0  0  0  0  0  0  0  0  0  0
    0.0000   -4.3014    0.0000 O   0  0  0  0  0  0  0  0  0  0  0  0
    6.5271    0.0000    0.0000 O   0  0  0  0  0  0  0  0  0  0  0  0
    2.1409   -2.2257    0.0000 C   0  0  0  0  0  0  0  0  0  0  0  0
    4.2883   -4.3014    0.0000 S   0  0  0  0  0  0  0  0  0  0  0  0
    4.2883   -5.1303    0.0000 C   0  0  0  0  0  0  0  0  0  0  0  0
    4.9998   -5.5415    0.0000 O   0  0  0  0  0  0  0  0  0  0  0  0
    3.5703   -5.5415    0.0000 C   0  0  0  0  0  0  0  0  0  0  0  0
  1  3  1  0
  1  7  1  0
  1  2  1  0
  1 25  1  1
  2  4  2  0
  2  9  1  0
  3  5  1  0
  4  6  1  0
  5  6  1  0
  6 23  2  0
  7 11  1  1
  7  8  1  0
  8 10  1  6
  8 13  1  0
  9 10  1  0
 10 26  1  6
 11 12  1  0
 12 14  1  0
 13 15  1  1
 13 14  1  0
 14 17  1  0
 14 22  1  1
 15 16  1  0
 17 16  1  6
 17 18  1  0
 17 19  1  0
 18 20  1  0
 19 21  1  0
 20 21  1  0
 21 24  2  0
 26 27  1  0
 27 28  2  0
 27 29  1  0
M  END
>  <Formula>  (681) 
C24H32O4S

>  <FW>  (681) 
416.5735

>  <DSSTox_CID>  (681) 
14186

>  <NR-Aromatase>  (681) 
1

>  <NR-AR>  (681) 
1

>  <NR-AR-LBD>  (681) 
1

>  <NR-ER>  (681) 
0

>  <NR-ER-LBD>  (681) 
0

>  <NR-AhR>  (681) 
0

>  <SR-HSE>  (681) 
0

>  <SR-p53>  (681) 
1

$$$$
NCGC00094644-01
     RDKit          2D

 34 35  0  0  1  0  0  0  0  0999 V2000
    7.6496    0.0000    0.0000 Na  0  0  0  0  0 15  0  0  0  0  0  0
    8.6144   -1.9985    0.0000 Na  0  0  0  0  0 15  0  0  0  0  0  0
    4.2642   -2.6360    0.0000 C   0  0  0  0  0  0  0  0  0  0  0  0
    2.8686   -3.4630    0.0000 C   0  0  0  0  0  0  0  0  0  0  0  0
    2.1364   -3.8593    0.0000 C   0  0  0  0  0  0  0  0  0  0  0  0
    4.2642   -3.4630    0.0000 C   0  0  0  0  0  0  0  0  0  0  0  0
    3.5577   -3.8593    0.0000 C   0  0  0  0  0  0  0  0  0  0  0  0
    5.0739   -2.4034    0.0000 C   0  0  0  0  0  0  0  0  0  0  0  0
    2.1364   -4.6863    0.0000 C   0  0  0  0  0  0  0  0  0  0  0  0
    2.8686   -2.6360    0.0000 C   0  0  0  0  0  0  0  0  0  0  0  0
    3.5577   -2.2484    0.0000 C   0  0  0  0  0  0  0  0  0  0  0  0
    5.5391   -3.0495    0.0000 C   0  0  0  0  0  0  0  0  0  0  0  0
    1.4558   -3.4630    0.0000 C   0  0  0  0  0  0  0  0  0  0  0  0
    5.0566   -3.7128    0.0000 C   0  0  0  0  0  0  0  0  0  0  0  0
    1.4558   -5.1084    0.0000 C   0  0  0  0  0  0  0  0  0  0  0  0
    5.0739   -1.5678    0.0000 C   0  0  0  0  0  0  0  0  0  0  0  0
    3.5577   -4.6863    0.0000 C   0  0  0  0  0  0  0  0  0  0  0  0
    0.7322   -3.8593    0.0000 C   0  0  0  0  0  0  0  0  0  0  0  0
    0.7322   -4.6863    0.0000 C   0  0  0  0  0  0  0  0  0  0  0  0
    2.8686   -5.1084    0.0000 C   0  0  0  0  0  0  0  0  0  0  0  0
    2.8341   -4.1694    0.0000 F   0  0  0  0  0  0  0  0  0  0  0  0
    4.3589   -1.1457    0.0000 O   0  0  0  0  0  0  0  0  0  0  0  0
    0.0000   -5.1256    0.0000 O   0  0  0  0  0  0  0  0  0  0  0  0
    5.8664   -2.3776    0.0000 O   0  0  0  0  0  0  0  0  0  0  0  0
    4.2642   -1.8004    0.0000 C   0  0  0  0  0  0  0  0  0  0  0  0
    2.1364   -2.2225    0.0000 O   0  0  0  0  0  0  0  0  0  0  0  0
    2.1364   -3.0495    0.0000 C   0  0  0  0  0  0  0  0  0  0  0  0
    6.3574   -3.0495    0.0000 C   0  0  0  0  0  0  0  0  0  0  0  0
    5.7717   -1.1629    0.0000 C   0  0  0  0  0  0  0  0  0  0  0  0
    6.4953   -1.5850    0.0000 O   0  0  0  0  0  0  0  0  0  0  0  0
    7.2016   -1.1974    0.0000 P   0  0  0  0  0  0  0  0  0  0  0  0
    7.9166   -0.7753    0.0000 O   0  0  0  0  0  0  0  0  0  0  0  0
    6.7968   -0.4738    0.0000 O   0  0  0  0  0  0  0  0  0  0  0  0
    7.6065   -1.9038    0.0000 O   0  0  0  0  0  0  0  0  0  0  0  0
  3  6  1  0
  3  8  1  0
  3 11  1  0
  3 25  1  1
  4 10  1  0
  4  5  1  0
  4 21  1  6
  4  7  1  0
  5  9  1  0
  5 13  1  0
  5 27  1  1
  6  7  1  0
  6 14  1  1
  7 17  1  6
  8 12  1  0
  8 16  1  0
  8 24  1  6
  9 15  2  0
  9 20  1  0
 10 11  1  0
 10 26  1  1
 12 28  1  6
 12 14  1  0
 13 18  2  0
 15 19  1  0
 16 22  2  0
 16 29  1  0
 17 20  1  0
 18 19  1  0
 19 23  2  0
 29 30  1  0
 30 31  1  0
 31 32  2  0
 31 33  1  0
 31 34  1  0
M  CHG  4   1   1   2   1  33  -1  34  -1
M  END
>  <Formula>  (682) 
C22H28FNa2O8P

>  <FW>  (682) 
516.4046 (22.9892+22.9892+470.4262)

>  <DSSTox_CID>  (682) 
27429

>  <NR-AR>  (682) 
1

>  <NR-AR-LBD>  (682) 
1

>  <NR-ER>  (682) 
1

>  <NR-PPAR-gamma>  (682) 
0

>  <NR-AhR>  (682) 
0

>  <SR-MMP>  (682) 
0

>  <SR-p53>  (682) 
0

$$$$
NCGC00022003-03
     RDKit          2D

 35 38  0  0  1  0  0  0  0  0999 V2000
    2.1594   -3.5712    0.0000 C   0  0  0  0  0  0  0  0  0  0  0  0
    4.2910   -2.3324    0.0000 C   0  0  0  0  0  0  0  0  0  0  0  0
    2.8722   -3.1560    0.0000 C   0  0  0  0  0  0  0  0  0  0  0  0
    2.1594   -4.3949    0.0000 C   0  0  0  0  0  0  0  0  0  0  0  0
    4.2910   -3.1560    0.0000 C   0  0  0  0  0  0  0  0  0  0  0  0
    3.5920   -3.5712    0.0000 C   0  0  0  0  0  0  0  0  0  0  0  0
    5.0800   -2.0763    0.0000 C   0  0  0  0  0  0  0  0  0  0  0  0
    2.8722   -2.3324    0.0000 C   0  0  0  0  0  0  0  0  0  0  0  0
    1.4396   -3.1560    0.0000 C   0  0  0  0  0  0  0  0  0  0  0  0
    3.5920   -1.9241    0.0000 C   0  0  0  0  0  0  0  0  0  0  0  0
    5.5645   -2.7476    0.0000 C   0  0  0  0  0  0  0  0  0  0  0  0
    5.0800   -3.4259    0.0000 C   0  0  0  0  0  0  0  0  0  0  0  0
    3.5920   -4.3949    0.0000 C   0  0  0  0  0  0  0  0  0  0  0  0
    2.8722   -4.8101    0.0000 C   0  0  0  0  0  0  0  0  0  0  0  0
    1.4396   -4.8101    0.0000 C   0  0  0  0  0  0  0  0  0  0  0  0
    5.0800   -1.2527    0.0000 C   0  0  0  0  0  0  0  0  0  0  0  0
    0.7336   -3.5712    0.0000 C   0  0  0  0  0  0  0  0  0  0  0  0
    0.7336   -4.3810    0.0000 C   0  0  0  0  0  0  0  0  0  0  0  0
    2.8584   -3.9450    0.0000 F   0  0  0  0  0  0  0  0  0  0  0  0
    5.7998   -0.8652    0.0000 O   0  0  0  0  0  0  0  0  0  0  0  0
    0.0000   -4.7894    0.0000 O   0  0  0  0  0  0  0  0  0  0  0  0
    5.7098   -1.5849    0.0000 O   0  0  0  0  0  0  0  0  0  0  0  0
    2.1594   -2.7407    0.0000 C   0  0  0  0  0  0  0  0  0  0  0  0
    4.3118   -1.5503    0.0000 C   0  0  0  0  0  0  0  0  0  0  0  0
    2.1594   -1.9171    0.0000 O   0  0  0  0  0  0  0  0  0  0  0  0
    2.8722   -5.6337    0.0000 F   0  0  0  0  0  0  0  0  0  0  0  0
    6.3881   -2.9553    0.0000 C   0  0  0  0  0  0  0  0  0  0  0  0
    4.3810   -0.8444    0.0000 C   0  0  0  0  0  0  0  0  0  0  0  0
    3.6612   -1.2389    0.0000 O   0  0  0  0  0  0  0  0  0  0  0  0
    2.9553   -0.8236    0.0000 C   0  0  0  0  0  0  0  0  0  0  0  0
    2.9553    0.0000    0.0000 O   0  0  0  0  0  0  0  0  0  0  0  0
    2.2424   -1.2320    0.0000 C   0  0  0  0  0  0  0  0  0  0  0  0
    6.4642   -1.9033    0.0000 C   0  0  0  0  0  0  0  0  0  0  0  0
    6.9210   -1.2181    0.0000 O   0  0  0  0  0  0  0  0  0  0  0  0
    6.8310   -2.6508    0.0000 C   0  0  0  0  0  0  0  0  0  0  0  0
  1  3  1  0
  1  4  1  0
  1  9  1  0
  1 23  1  1
  2 10  1  0
  2  7  1  0
  2 24  1  1
  2  5  1  0
  3  6  1  0
  3  8  1  0
  3 19  1  6
  4 14  1  0
  4 15  2  0
  5  6  1  0
  5 12  1  1
  6 13  1  6
  7 16  1  0
  7 22  1  6
  7 11  1  0
  8 10  1  0
  8 25  1  1
  9 17  2  0
 11 12  1  0
 11 27  1  1
 13 14  1  0
 14 26  1  6
 15 18  1  0
 16 20  2  0
 16 28  1  0
 17 18  1  0
 18 21  2  0
 22 33  1  0
 28 29  1  0
 29 30  1  0
 30 31  2  0
 30 32  1  0
 33 34  2  0
 33 35  1  0
M  END
>  <Formula>  (683) 
C26H32F2O7

>  <FW>  (683) 
494.5249

>  <DSSTox_CID>  (683) 
25646

>  <NR-AR>  (683) 
1

>  <NR-AR-LBD>  (683) 
1

>  <NR-ER-LBD>  (683) 
0

>  <NR-PPAR-gamma>  (683) 
0

>  <SR-ATAD5>  (683) 
0

>  <SR-MMP>  (683) 
1

>  <SR-p53>  (683) 
0

$$$$
NCGC00016984-01
     RDKit          2D

 36 39  0  0  1  0  0  0  0  0999 V2000
    4.2914   -3.9908    0.0000 C   0  0  0  0  0  0  0  0  0  0  0  0
    2.1795   -5.2234    0.0000 C   0  0  0  0  0  0  0  0  0  0  0  0
    4.2914   -4.8325    0.0000 C   0  0  0  0  0  0  0  0  0  0  0  0
    2.8785   -4.8325    0.0000 C   0  0  0  0  0  0  0  0  0  0  0  0
    3.5774   -5.2234    0.0000 C   0  0  0  0  0  0  0  0  0  0  0  0
    5.0956   -3.7277    0.0000 C   0  0  0  0  0  0  0  0  0  0  0  0
    2.1795   -6.0651    0.0000 C   0  0  0  0  0  0  0  0  0  0  0  0
    2.8785   -3.9908    0.0000 C   0  0  0  0  0  0  0  0  0  0  0  0
    3.5774   -3.5774    0.0000 C   0  0  0  0  0  0  0  0  0  0  0  0
    3.5774   -6.0651    0.0000 C   0  0  0  0  0  0  0  0  0  0  0  0
    5.5616   -4.4042    0.0000 C   0  0  0  0  0  0  0  0  0  0  0  0
    1.4806   -4.8325    0.0000 C   0  0  0  0  0  0  0  0  0  0  0  0
    5.0956   -5.0656    0.0000 C   0  0  0  0  0  0  0  0  0  0  0  0
    1.4806   -6.4710    0.0000 C   0  0  0  0  0  0  0  0  0  0  0  0
    2.8785   -6.4710    0.0000 C   0  0  0  0  0  0  0  0  0  0  0  0
    5.0956   -2.9086    0.0000 C   0  0  0  0  0  0  0  0  0  0  0  0
    0.7366   -5.2234    0.0000 C   0  0  0  0  0  0  0  0  0  0  0  0
    0.7366   -6.0651    0.0000 C   0  0  0  0  0  0  0  0  0  0  0  0
    4.3741   -2.4726    0.0000 O   0  0  0  0  0  0  0  0  0  0  0  0
    0.0000   -6.5010    0.0000 O   0  0  0  0  0  0  0  0  0  0  0  0
    5.9148   -3.7277    0.0000 O   0  0  0  0  0  0  0  0  0  0  0  0
    4.2539   -6.4635    0.0000 Cl  0  0  0  0  0  0  0  0  0  0  0  0
    4.2914   -3.1490    0.0000 C   0  0  0  0  0  0  0  0  0  0  0  0
    2.1495   -3.5549    0.0000 O   0  0  0  0  0  0  0  0  0  0  0  0
    2.1795   -4.4042    0.0000 C   0  0  0  0  0  0  0  0  0  0  0  0
    5.7870   -2.5027    0.0000 C   0  0  0  0  0  0  0  0  0  0  0  0
    6.4033   -4.3966    0.0000 C   0  0  0  0  0  0  0  0  0  0  0  0
    5.7870   -1.6610    0.0000 O   0  0  0  0  0  0  0  0  0  0  0  0
    6.5010   -1.2476    0.0000 C   0  0  0  0  0  0  0  0  0  0  0  0
    7.2225   -1.6610    0.0000 O   0  0  0  0  0  0  0  0  0  0  0  0
    6.5010   -0.4134    0.0000 C   0  0  0  0  0  0  0  0  0  0  0  0
    7.2225    0.0000    0.0000 C   0  0  0  0  0  0  0  0  0  0  0  0
    6.4935   -3.1490    0.0000 C   0  0  0  0  0  0  0  0  0  0  0  0
    7.2826   -3.3595    0.0000 C   0  0  0  0  0  0  0  0  0  0  0  0
    6.2906   -2.3373    0.0000 O   0  0  0  0  0  0  0  0  0  0  0  0
    7.5157   -4.1637    0.0000 C   0  0  0  0  0  0  0  0  0  0  0  0
  1  3  1  0
  1  6  1  0
  1  9  1  0
  1 23  1  1
  2  4  1  0
  2  7  1  0
  2 12  1  0
  2 25  1  1
  3  5  1  0
  3 13  1  1
  4  8  1  1
  4  5  1  0
  5 10  1  6
  6 11  1  0
  6 16  1  0
  6 21  1  6
  7 14  2  0
  7 15  1  0
  8  9  1  0
  8 24  1  1
 10 15  1  0
 10 22  1  6
 11 27  1  6
 11 13  1  0
 12 17  2  0
 14 18  1  0
 16 19  2  0
 16 26  1  0
 17 18  1  0
 18 20  2  0
 21 33  1  0
 26 28  1  0
 28 29  1  0
 29 30  2  0
 29 31  1  0
 31 32  1  0
 33 34  1  0
 33 35  2  0
 34 36  1  0
M  END
>  <Formula>  (684) 
C28H37ClO7

>  <FW>  (684) 
521.0422

>  <DSSTox_CID>  (684) 
25535

>  <NR-AR>  (684) 
1

>  <NR-AR-LBD>  (684) 
1

>  <NR-ER-LBD>  (684) 
0

>  <NR-PPAR-gamma>  (684) 
0

>  <SR-ATAD5>  (684) 
0

>  <SR-MMP>  (684) 
0

>  <SR-p53>  (684) 
0

$$$$
NCGC00183597-01
     RDKit          2D

 37 40  0  0  1  0  0  0  0  0999 V2000
    4.3165   -3.5652    0.0000 C   0  0  0  0  0  0  0  0  0  0  0  0
    2.8875   -4.3902    0.0000 C   0  0  0  0  0  0  0  0  0  0  0  0
    2.1656   -4.7953    0.0000 C   0  0  0  0  0  0  0  0  0  0  0  0
    4.3165   -4.3902    0.0000 C   0  0  0  0  0  0  0  0  0  0  0  0
    3.5946   -4.7953    0.0000 C   0  0  0  0  0  0  0  0  0  0  0  0
    5.0899   -3.3074    0.0000 C   0  0  0  0  0  0  0  0  0  0  0  0
    2.1656   -5.6276    0.0000 C   0  0  0  0  0  0  0  0  0  0  0  0
    2.8875   -3.5652    0.0000 C   0  0  0  0  0  0  0  0  0  0  0  0
    3.5946   -3.1527    0.0000 C   0  0  0  0  0  0  0  0  0  0  0  0
    5.5908   -3.9777    0.0000 C   0  0  0  0  0  0  0  0  0  0  0  0
    1.4658   -4.3902    0.0000 C   0  0  0  0  0  0  0  0  0  0  0  0
    5.1047   -4.6333    0.0000 C   0  0  0  0  0  0  0  0  0  0  0  0
    1.4658   -6.0475    0.0000 C   0  0  0  0  0  0  0  0  0  0  0  0
    5.0899   -2.4603    0.0000 C   0  0  0  0  0  0  0  0  0  0  0  0
    3.5946   -5.6276    0.0000 C   0  0  0  0  0  0  0  0  0  0  0  0
    0.7439   -4.7953    0.0000 C   0  0  0  0  0  0  0  0  0  0  0  0
    0.7439   -5.6276    0.0000 C   0  0  0  0  0  0  0  0  0  0  0  0
    2.8875   -6.0475    0.0000 C   0  0  0  0  0  0  0  0  0  0  0  0
    2.8654   -5.1047    0.0000 F   0  0  0  0  0  0  0  0  0  0  0  0
    5.8044   -2.0625    0.0000 O   0  0  0  0  0  0  0  0  0  0  0  0
    0.0000   -6.0549    0.0000 O   0  0  0  0  0  0  0  0  0  0  0  0
    5.9370   -3.3147    0.0000 O   0  0  0  0  0  0  0  0  0  0  0  0
    4.3165   -2.7328    0.0000 C   0  0  0  0  0  0  0  0  0  0  0  0
    2.1509   -3.1453    0.0000 O   0  0  0  0  0  0  0  0  0  0  0  0
    2.1656   -3.9777    0.0000 C   0  0  0  0  0  0  0  0  0  0  0  0
    6.4158   -3.9703    0.0000 C   0  0  0  0  0  0  0  0  0  0  0  0
    4.3975   -2.0625    0.0000 C   0  0  0  0  0  0  0  0  0  0  0  0
    4.3975   -1.2375    0.0000 O   0  0  0  0  0  0  0  0  0  0  0  0
    6.6515   -2.8948    0.0000 C   0  0  0  0  0  0  0  0  0  0  0  0
    7.3660   -3.3147    0.0000 O   0  0  0  0  0  0  0  0  0  0  0  0
    6.6515   -2.0772    0.0000 C   0  0  0  0  0  0  0  0  0  0  0  0
    7.3660   -1.6647    0.0000 C   0  0  0  0  0  0  0  0  0  0  0  0
    7.3660   -0.8397    0.0000 C   0  0  0  0  0  0  0  0  0  0  0  0
    3.6830   -0.8250    0.0000 C   0  0  0  0  0  0  0  0  0  0  0  0
    3.6830    0.0000    0.0000 O   0  0  0  0  0  0  0  0  0  0  0  0
    2.9685   -1.2227    0.0000 C   0  0  0  0  0  0  0  0  0  0  0  0
    2.2540   -0.8250    0.0000 C   0  0  0  0  0  0  0  0  0  0  0  0
  1  4  1  0
  1  6  1  0
  1  9  1  0
  1 23  1  1
  2  8  1  0
  2  3  1  0
  2 19  1  6
  2  5  1  0
  3  7  1  0
  3 11  1  0
  3 25  1  1
  4  5  1  0
  4 12  1  1
  5 15  1  6
  6 10  1  0
  6 14  1  0
  6 22  1  6
  7 13  2  0
  7 18  1  0
  8  9  1  0
  8 24  1  1
 10 26  1  1
 10 12  1  0
 11 16  2  0
 13 17  1  0
 14 20  2  0
 14 27  1  0
 15 18  1  0
 16 17  1  0
 17 21  2  0
 22 29  1  0
 27 28  1  0
 28 34  1  0
 29 30  2  0
 29 31  1  0
 31 32  1  0
 32 33  1  0
 34 35  2  0
 34 36  1  0
 36 37  1  0
M  END
>  <Formula>  (685) 
C29H39FO7

>  <FW>  (685) 
518.6142

>  <DSSTox_CID>  (685) 
2671

>  <NR-AR>  (685) 
1

>  <NR-AR-LBD>  (685) 
1

>  <NR-ER>  (685) 
0

>  <NR-ER-LBD>  (685) 
0

>  <SR-ATAD5>  (685) 
0

>  <SR-MMP>  (685) 
1

>  <SR-p53>  (685) 
0

$$$$
NCGC00094799-01
     RDKit          2D

 28 31  0  0  1  0  0  0  0  0999 V2000
    4.2947   -1.5012    0.0000 C   0  0  0  0  0  0  0  0  0  0  0  0
    2.8849   -2.3170    0.0000 C   0  0  0  0  0  0  0  0  0  0  0  0
    5.0844   -1.2597    0.0000 C   0  0  0  0  0  0  0  0  0  0  0  0
    2.1669   -2.7348    0.0000 C   0  0  0  0  0  0  0  0  0  0  0  0
    4.2947   -2.3301    0.0000 C   0  0  0  0  0  0  0  0  0  0  0  0
    3.5833   -2.7348    0.0000 C   0  0  0  0  0  0  0  0  0  0  0  0
    2.1669   -3.5637    0.0000 C   0  0  0  0  0  0  0  0  0  0  0  0
    2.8849   -1.5012    0.0000 C   0  0  0  0  0  0  0  0  0  0  0  0
    5.5609   -1.8993    0.0000 C   0  0  0  0  0  0  0  0  0  0  0  0
    3.5702   -1.0835    0.0000 C   0  0  0  0  0  0  0  0  0  0  0  0
    1.4555   -2.3170    0.0000 C   0  0  0  0  0  0  0  0  0  0  0  0
    5.0844   -2.5585    0.0000 C   0  0  0  0  0  0  0  0  0  0  0  0
    1.4555   -3.9683    0.0000 C   0  0  0  0  0  0  0  0  0  0  0  0
    5.0844   -0.4308    0.0000 C   0  0  0  0  0  0  0  0  0  0  0  0
    3.5833   -3.5637    0.0000 C   0  0  0  0  0  0  0  0  0  0  0  0
    0.7441   -2.7348    0.0000 C   0  0  0  0  0  0  0  0  0  0  0  0
    0.7441   -3.5637    0.0000 C   0  0  0  0  0  0  0  0  0  0  0  0
    2.8849   -3.9683    0.0000 C   0  0  0  0  0  0  0  0  0  0  0  0
    2.8980   -3.1068    0.0000 F   0  0  0  0  0  0  0  0  0  0  0  0
    4.3600    0.0000    0.0000 O   0  0  0  0  0  0  0  0  0  0  0  0
    0.0000   -3.9553    0.0000 O   0  0  0  0  0  0  0  0  0  0  0  0
    4.2947   -0.6788    0.0000 C   0  0  0  0  0  0  0  0  0  0  0  0
    2.1539   -1.0835    0.0000 O   0  0  0  0  0  0  0  0  0  0  0  0
    6.3898   -1.8732    0.0000 O   0  0  0  0  0  0  0  0  0  0  0  0
    2.1669   -1.8993    0.0000 C   0  0  0  0  0  0  0  0  0  0  0  0
    5.8024    0.0000    0.0000 C   0  0  0  0  0  0  0  0  0  0  0  0
    6.5269   -0.3851    0.0000 O   0  0  0  0  0  0  0  0  0  0  0  0
    5.8024   -0.8485    0.0000 O   0  0  0  0  0  0  0  0  0  0  0  0
  1  3  1  0
  1  5  1  0
  1 10  1  0
  1 22  1  1
  2  8  1  0
  2  4  1  0
  2 19  1  6
  2  6  1  0
  3  9  1  0
  3 14  1  0
  3 28  1  6
  4  7  1  0
  4 11  1  0
  4 25  1  1
  5  6  1  0
  5 12  1  1
  6 15  1  6
  7 13  2  0
  7 18  1  0
  8 10  1  0
  8 23  1  1
  9 24  1  6
  9 12  1  0
 11 16  2  0
 13 17  1  0
 14 20  2  0
 14 26  1  0
 15 18  1  0
 16 17  1  0
 17 21  2  0
 26 27  1  0
M  END
>  <Formula>  (686) 
C21H27FO6

>  <FW>  (686) 
394.4339

>  <DSSTox_CID>  (686) 
20742

>  <NR-AR>  (686) 
1

>  <NR-AR-LBD>  (686) 
1

>  <NR-ER>  (686) 
1

>  <NR-PPAR-gamma>  (686) 
0

>  <NR-AhR>  (686) 
0

>  <SR-MMP>  (686) 
0

>  <SR-p53>  (686) 
0

$$$$
NCGC00159474-02
     RDKit          2D

 27 30  0  0  1  0  0  0  0  0999 V2000
    2.1799   -2.8775    0.0000 C   0  0  0  0  0  0  0  0  0  0  0  0
    4.3128   -1.6366    0.0000 C   0  0  0  0  0  0  0  0  0  0  0  0
    2.1799   -3.7025    0.0000 C   0  0  0  0  0  0  0  0  0  0  0  0
    5.1110   -1.3817    0.0000 C   0  0  0  0  0  0  0  0  0  0  0  0
    2.8976   -2.4750    0.0000 C   0  0  0  0  0  0  0  0  0  0  0  0
    3.6085   -2.8775    0.0000 C   0  0  0  0  0  0  0  0  0  0  0  0
    4.3128   -2.4750    0.0000 C   0  0  0  0  0  0  0  0  0  0  0  0
    1.4555   -2.4750    0.0000 C   0  0  0  0  0  0  0  0  0  0  0  0
    3.6085   -1.2207    0.0000 C   0  0  0  0  0  0  0  0  0  0  0  0
    2.8976   -1.6366    0.0000 C   0  0  0  0  0  0  0  0  0  0  0  0
    3.6085   -3.7025    0.0000 C   0  0  0  0  0  0  0  0  0  0  0  0
    2.8976   -4.1116    0.0000 C   0  0  0  0  0  0  0  0  0  0  0  0
    1.4555   -4.1116    0.0000 C   0  0  0  0  0  0  0  0  0  0  0  0
    5.3391   -0.5969    0.0000 C   0  0  0  0  0  0  0  0  0  0  0  0
    5.5872   -2.0457    0.0000 C   0  0  0  0  0  0  0  0  0  0  0  0
    5.1110   -2.7299    0.0000 C   0  0  0  0  0  0  0  0  0  0  0  0
    0.7445   -2.8775    0.0000 C   0  0  0  0  0  0  0  0  0  0  0  0
    0.7445   -3.7025    0.0000 C   0  0  0  0  0  0  0  0  0  0  0  0
    4.7757    0.0000    0.0000 O   0  0  0  0  0  0  0  0  0  0  0  0
    0.0000   -4.1116    0.0000 O   0  0  0  0  0  0  0  0  0  0  0  0
    5.9427   -1.4421    0.0000 O   0  0  0  0  0  0  0  0  0  0  0  0
    2.1799   -2.0457    0.0000 C   0  0  0  0  0  0  0  0  0  0  0  0
    4.3128   -0.7982    0.0000 C   0  0  0  0  0  0  0  0  0  0  0  0
    2.8976   -4.9433    0.0000 F   0  0  0  0  0  0  0  0  0  0  0  0
    2.1799   -1.2140    0.0000 O   0  0  0  0  0  0  0  0  0  0  0  0
    6.1439   -0.3890    0.0000 C   0  0  0  0  0  0  0  0  0  0  0  0
    6.7074   -0.9927    0.0000 O   0  0  0  0  0  0  0  0  0  0  0  0
  1  3  1  0
  1  5  1  0
  1  8  1  0
  1 22  1  1
  2  9  1  0
  2  4  1  0
  2 23  1  1
  2  7  1  0
  3 12  1  0
  3 13  2  0
  4 14  1  0
  4 21  1  6
  4 15  1  0
  5  6  1  0
  5 10  1  1
  6  7  1  0
  6 11  1  6
  7 16  1  1
  8 17  2  0
  9 10  1  0
 10 25  1  1
 11 12  1  0
 12 24  1  6
 13 18  1  0
 14 19  2  0
 14 26  1  0
 15 16  1  0
 17 18  1  0
 18 20  2  0
 26 27  1  0
M  END
>  <Formula>  (687) 
C21H27FO5

>  <FW>  (687) 
378.4345

>  <DSSTox_CID>  (687) 
26067

>  <NR-AR>  (687) 
1

>  <NR-AR-LBD>  (687) 
1

>  <NR-ER-LBD>  (687) 
0

>  <NR-PPAR-gamma>  (687) 
0

>  <SR-ATAD5>  (687) 
0

>  <SR-MMP>  (687) 
0

>  <SR-p53>  (687) 
0

$$$$
NCGC00258219-01
     RDKit          2D

 28 31  0  0  1  0  0  0  0  0999 V2000
    5.4043    0.0000    0.0000 C   0  0  0  0  0  0  0  0  0  0  0  0
    4.8176   -0.5578    0.0000 C   0  0  0  0  0  0  0  0  0  0  0  0
    4.0134   -0.3477    0.0000 O   0  0  0  0  0  0  0  0  0  0  0  0
    5.0784   -1.6083    0.0000 C   0  0  0  0  0  0  0  0  0  0  0  0
    5.5565   -2.2748    0.0000 C   0  0  0  0  0  0  0  0  0  0  0  0
    5.0638   -2.9485    0.0000 C   0  0  0  0  0  0  0  0  0  0  0  0
    4.2887   -2.6877    0.0000 C   0  0  0  0  0  0  0  0  0  0  0  0
    3.5643   -3.0934    0.0000 C   0  0  0  0  0  0  0  0  0  0  0  0
    3.5643   -3.9265    0.0000 C   0  0  0  0  0  0  0  0  0  0  0  0
    2.8471   -4.3394    0.0000 C   0  0  0  0  0  0  0  0  0  0  0  0
    2.8471   -5.1652    0.0000 Cl  0  0  0  0  0  0  0  0  0  0  0  0
    2.1371   -3.9265    0.0000 C   0  0  0  0  0  0  0  0  0  0  0  0
    1.4271   -4.3394    0.0000 C   0  0  0  0  0  0  0  0  0  0  0  0
    0.7100   -3.9265    0.0000 C   0  0  0  0  0  0  0  0  0  0  0  0
    0.0000   -4.3394    0.0000 O   0  0  0  0  0  0  0  0  0  0  0  0
    0.7172   -3.0934    0.0000 C   0  0  0  0  0  0  0  0  0  0  0  0
    1.4271   -2.6877    0.0000 C   0  0  0  0  0  0  0  0  0  0  0  0
    2.1371   -3.1079    0.0000 C   0  0  0  0  0  0  0  0  0  0  0  0
    2.1516   -2.2748    0.0000 C   0  0  0  0  0  0  0  0  0  0  0  0
    2.8543   -2.6877    0.0000 C   0  0  0  0  0  0  0  0  0  0  0  0
    2.8543   -1.8691    0.0000 C   0  0  0  0  0  0  0  0  0  0  0  0
    3.5787   -1.4489    0.0000 C   0  0  0  0  0  0  0  0  0  0  0  0
    4.2887   -1.8691    0.0000 C   0  0  0  0  0  0  0  0  0  0  0  0
    4.2235   -1.0359    0.0000 C   0  0  0  0  0  0  0  0  0  0  0  0
    5.8172   -1.2605    0.0000 O   0  0  0  0  0  0  0  0  0  0  0  0
    6.4983   -1.7387    0.0000 C   0  0  0  0  0  0  0  0  0  0  0  0
    7.2444   -1.3909    0.0000 C   0  0  0  0  0  0  0  0  0  0  0  0
    6.4258   -2.5573    0.0000 O   0  0  0  0  0  0  0  0  0  0  0  0
  1  2  1  0
  2  3  2  0
  4  2  1  0
  4  5  1  0
  4 23  1  0
  4 25  1  6
  5  6  1  0
  7  6  1  1
  7  8  1  0
  7 23  1  0
  8  9  1  6
  8 20  1  0
  9 10  2  0
 10 11  1  0
 10 12  1  0
 12 13  2  0
 12 18  1  0
 13 14  1  0
 14 15  2  0
 14 16  1  0
 16 17  1  0
 17 18  1  0
 18 19  1  1
 18 20  1  0
 20 21  1  1
 21 22  1  0
 22 23  1  0
 23 24  1  1
 25 26  1  0
 26 27  1  0
 26 28  2  0
M  END
>  <Formula>  (688) 
C23H29ClO4

>  <FW>  (688) 
404.9270

>  <DSSTox_CID>  (688) 
274

>  <NR-AR>  (688) 
1

>  <NR-AR-LBD>  (688) 
1

>  <NR-ER-LBD>  (688) 
0

>  <NR-PPAR-gamma>  (688) 
0

>  <NR-AhR>  (688) 
0

>  <SR-ARE>  (688) 
1

>  <SR-ATAD5>  (688) 
0

>  <SR-HSE>  (688) 
0

$$$$
NCGC00255185-01
     RDKit          2D

 34 37  0  0  1  0  0  0  0  0999 V2000
    4.3101   -3.1478    0.0000 C   0  0  0  0  0  0  0  0  0  0  0  0
    2.8815   -3.9549    0.0000 C   0  0  0  0  0  0  0  0  0  0  0  0
    2.1631   -4.3666    0.0000 C   0  0  0  0  0  0  0  0  0  0  0  0
    4.3101   -3.9549    0.0000 C   0  0  0  0  0  0  0  0  0  0  0  0
    3.5917   -4.3666    0.0000 C   0  0  0  0  0  0  0  0  0  0  0  0
    5.0849   -2.8895    0.0000 C   0  0  0  0  0  0  0  0  0  0  0  0
    2.1631   -5.2060    0.0000 C   0  0  0  0  0  0  0  0  0  0  0  0
    2.8815   -3.1478    0.0000 C   0  0  0  0  0  0  0  0  0  0  0  0
    3.5917   -2.7281    0.0000 C   0  0  0  0  0  0  0  0  0  0  0  0
    5.5853   -3.5513    0.0000 C   0  0  0  0  0  0  0  0  0  0  0  0
    1.4690   -3.9549    0.0000 C   0  0  0  0  0  0  0  0  0  0  0  0
    5.0930   -4.2132    0.0000 C   0  0  0  0  0  0  0  0  0  0  0  0
    1.4690   -5.6257    0.0000 C   0  0  0  0  0  0  0  0  0  0  0  0
    5.0849   -2.0421    0.0000 C   0  0  0  0  0  0  0  0  0  0  0  0
    3.5917   -5.2060    0.0000 C   0  0  0  0  0  0  0  0  0  0  0  0
    0.7426   -4.3666    0.0000 C   0  0  0  0  0  0  0  0  0  0  0  0
    0.7426   -5.2060    0.0000 C   0  0  0  0  0  0  0  0  0  0  0  0
    2.8815   -5.6257    0.0000 C   0  0  0  0  0  0  0  0  0  0  0  0
    2.8653   -4.6733    0.0000 F   0  0  0  0  0  0  0  0  0  0  0  0
    4.3746   -1.6384    0.0000 O   0  0  0  0  0  0  0  0  0  0  0  0
    0.0000   -5.6338    0.0000 O   0  0  0  0  0  0  0  0  0  0  0  0
    5.9324   -2.8895    0.0000 O   0  0  0  0  0  0  0  0  0  0  0  0
    4.3101   -2.3003    0.0000 C   0  0  0  0  0  0  0  0  0  0  0  0
    2.1550   -2.7200    0.0000 O   0  0  0  0  0  0  0  0  0  0  0  0
    2.1631   -3.5513    0.0000 C   0  0  0  0  0  0  0  0  0  0  0  0
    6.4086   -3.5433    0.0000 C   0  0  0  0  0  0  0  0  0  0  0  0
    5.7871   -1.6384    0.0000 C   0  0  0  0  0  0  0  0  0  0  0  0
    5.7791   -0.8071    0.0000 O   0  0  0  0  0  0  0  0  0  0  0  0
    6.6427   -2.4779    0.0000 C   0  0  0  0  0  0  0  0  0  0  0  0
    7.3610   -2.8895    0.0000 O   0  0  0  0  0  0  0  0  0  0  0  0
    6.6427   -1.6465    0.0000 C   0  0  0  0  0  0  0  0  0  0  0  0
    7.3610   -1.2430    0.0000 C   0  0  0  0  0  0  0  0  0  0  0  0
    7.3610   -0.4278    0.0000 C   0  0  0  0  0  0  0  0  0  0  0  0
    8.0713    0.0000    0.0000 C   0  0  0  0  0  0  0  0  0  0  0  0
  1  4  1  0
  1  6  1  0
  1  9  1  0
  1 23  1  1
  2  8  1  0
  2  3  1  0
  2 19  1  6
  2  5  1  0
  3  7  1  0
  3 11  1  0
  3 25  1  1
  4  5  1  0
  4 12  1  1
  5 15  1  6
  6 10  1  0
  6 14  1  0
  6 22  1  6
  7 13  2  0
  7 18  1  0
  8  9  1  0
  8 24  1  1
 10 26  1  1
 10 12  1  0
 11 16  2  0
 13 17  1  0
 14 20  2  0
 14 27  1  0
 15 18  1  0
 16 17  1  0
 17 21  2  0
 22 29  1  0
 27 28  1  0
 29 30  2  0
 29 31  1  0
 31 32  1  0
 32 33  1  0
 33 34  1  0
M  END
>  <Formula>  (689) 
C27H37FO6

>  <FW>  (689) 
476.5775

>  <DSSTox_CID>  (689) 
2673

>  <NR-AR>  (689) 
1

>  <NR-AR-LBD>  (689) 
1

>  <NR-ER-LBD>  (689) 
0

>  <SR-ATAD5>  (689) 
0

>  <SR-HSE>  (689) 
0

>  <SR-MMP>  (689) 
1

>  <SR-p53>  (689) 
0

$$$$
NCGC00256442-01
     RDKit          2D

 29 33  0  0  1  0  0  0  0  0999 V2000
    2.1521   -2.9413    0.0000 C   0  0  0  0  0  0  0  0  0  0  0  0
    2.1521   -3.7735    0.0000 C   0  0  0  0  0  0  0  0  0  0  0  0
    1.4563   -2.5324    0.0000 C   0  0  0  0  0  0  0  0  0  0  0  0
    0.7174   -2.9628    0.0000 C   0  0  0  0  0  0  0  0  0  0  0  0
    4.2900   -1.7074    0.0000 C   0  0  0  0  0  0  0  0  0  0  0  0
    2.8767   -2.5324    0.0000 C   0  0  0  0  0  0  0  0  0  0  0  0
    3.5798   -2.9628    0.0000 C   0  0  0  0  0  0  0  0  0  0  0  0
    0.7174   -2.1379    0.0000 C   0  0  0  0  0  0  0  0  0  0  0  0
    2.8767   -4.1895    0.0000 C   0  0  0  0  0  0  0  0  0  0  0  0
    1.4563   -4.1895    0.0000 C   0  0  0  0  0  0  0  0  0  0  0  0
    5.0576   -1.4491    0.0000 C   0  0  0  0  0  0  0  0  0  0  0  0
    3.5798   -3.7950    0.0000 C   0  0  0  0  0  0  0  0  0  0  0  0
    4.2900   -2.5324    0.0000 C   0  0  0  0  0  0  0  0  0  0  0  0
    0.7174   -3.7735    0.0000 C   0  0  0  0  0  0  0  0  0  0  0  0
    3.5654   -1.3200    0.0000 C   0  0  0  0  0  0  0  0  0  0  0  0
    2.8767   -1.7074    0.0000 C   0  0  0  0  0  0  0  0  0  0  0  0
    5.5454   -2.1379    0.0000 C   0  0  0  0  0  0  0  0  0  0  0  0
    5.0576   -2.7906    0.0000 C   0  0  0  0  0  0  0  0  0  0  0  0
    5.3374   -0.7389    0.0000 C   0  0  0  0  0  0  0  0  0  0  0  0
    0.0000   -4.2828    0.0000 O   0  0  0  0  0  0  0  0  0  0  0  0
    4.9069    0.0000    0.0000 O   0  0  0  0  0  0  0  0  0  0  0  0
    2.8767   -5.0289    0.0000 Cl  0  0  0  0  0  0  0  0  0  0  0  0
    5.9400   -1.4491    0.0000 O   0  0  0  0  0  0  0  0  0  0  0  0
    2.1665   -2.0876    0.0000 C   0  0  0  0  0  0  0  0  0  0  0  0
    4.2900   -0.9613    0.0000 C   0  0  0  0  0  0  0  0  0  0  0  0
    6.1767   -0.7389    0.0000 C   0  0  0  0  0  0  0  0  0  0  0  0
    6.3489   -2.1665    0.0000 C   0  0  0  0  0  0  0  0  0  0  0  0
    7.1739   -2.1665    0.0000 C   0  0  0  0  0  0  0  0  0  0  0  0
    5.9400   -2.8839    0.0000 O   0  0  0  0  0  0  0  0  0  0  0  0
  1  2  1  0
  1  3  1  0
  1  6  1  0
  1 24  1  1
  2  9  1  0
  2 10  2  0
  3  4  1  0
  3  8  1  6
  4 14  1  0
  4  8  1  6
  5 15  1  0
  5 11  1  0
  5 25  1  1
  5 13  1  0
  6  7  1  0
  6 16  1  1
  7 12  1  6
  7 13  1  0
  9 22  1  0
  9 12  2  0
 10 14  1  0
 11 19  1  0
 11 23  1  6
 11 17  1  0
 13 18  1  1
 14 20  2  0
 15 16  1  0
 17 18  1  0
 19 21  2  0
 19 26  1  0
 23 27  1  0
 27 28  1  0
 27 29  2  0
M  END
>  <Formula>  (690) 
C24H29ClO4

>  <FW>  (690) 
416.9377

>  <DSSTox_CID>  (690) 
366

>  <NR-Aromatase>  (690) 
0

>  <NR-AR>  (690) 
1

>  <NR-AR-LBD>  (690) 
1

>  <NR-ER>  (690) 
0

>  <NR-ER-LBD>  (690) 
0

>  <SR-ARE>  (690) 
1

>  <SR-ATAD5>  (690) 
0

>  <SR-HSE>  (690) 
0

>  <SR-p53>  (690) 
0

$$$$
NCGC00183100-01
     RDKit          2D

 34 37  0  0  1  0  0  0  0  0999 V2000
    2.1763   -3.5695    0.0000 C   0  0  0  0  0  0  0  0  0  0  0  0
    2.8780   -3.1627    0.0000 C   0  0  0  0  0  0  0  0  0  0  0  0
    4.3220   -2.3187    0.0000 C   0  0  0  0  0  0  0  0  0  0  0  0
    2.1763   -4.4237    0.0000 C   0  0  0  0  0  0  0  0  0  0  0  0
    4.3220   -3.1729    0.0000 C   0  0  0  0  0  0  0  0  0  0  0  0
    3.6102   -3.5899    0.0000 C   0  0  0  0  0  0  0  0  0  0  0  0
    2.8780   -2.3187    0.0000 C   0  0  0  0  0  0  0  0  0  0  0  0
    1.4542   -3.1627    0.0000 C   0  0  0  0  0  0  0  0  0  0  0  0
    5.1559   -2.0848    0.0000 C   0  0  0  0  0  0  0  0  0  0  0  0
    3.6102   -1.9118    0.0000 C   0  0  0  0  0  0  0  0  0  0  0  0
    5.1153   -3.4170    0.0000 C   0  0  0  0  0  0  0  0  0  0  0  0
    5.6034   -2.7559    0.0000 C   0  0  0  0  0  0  0  0  0  0  0  0
    3.6102   -4.4237    0.0000 C   0  0  0  0  0  0  0  0  0  0  0  0
    2.8780   -4.8102    0.0000 C   0  0  0  0  0  0  0  0  0  0  0  0
    1.4542   -4.8102    0.0000 C   0  0  0  0  0  0  0  0  0  0  0  0
    0.7322   -3.5899    0.0000 C   0  0  0  0  0  0  0  0  0  0  0  0
    0.7322   -4.4135    0.0000 C   0  0  0  0  0  0  0  0  0  0  0  0
    5.1559   -1.2407    0.0000 C   0  0  0  0  0  0  0  0  0  0  0  0
    2.8881   -3.9966    0.0000 F   0  0  0  0  0  0  0  0  0  0  0  0
    4.4441   -0.8441    0.0000 O   0  0  0  0  0  0  0  0  0  0  0  0
    0.0000   -4.8102    0.0000 O   0  0  0  0  0  0  0  0  0  0  0  0
    2.1763   -2.7458    0.0000 C   0  0  0  0  0  0  0  0  0  0  0  0
    4.3220   -1.4949    0.0000 C   0  0  0  0  0  0  0  0  0  0  0  0
    2.1763   -1.9118    0.0000 O   0  0  0  0  0  0  0  0  0  0  0  0
    2.8780   -5.6644    0.0000 F   0  0  0  0  0  0  0  0  0  0  0  0
    6.4271   -2.7559    0.0000 C   0  0  0  0  0  0  0  0  0  0  0  0
    6.5797   -1.2509    0.0000 O   0  0  0  0  0  0  0  0  0  0  0  0
    5.8678   -0.8339    0.0000 C   0  0  0  0  0  0  0  0  0  0  0  0
    7.3017   -0.8339    0.0000 C   0  0  0  0  0  0  0  0  0  0  0  0
    7.3017    0.0000    0.0000 O   0  0  0  0  0  0  0  0  0  0  0  0
    8.0237   -1.2509    0.0000 C   0  0  0  0  0  0  0  0  0  0  0  0
    8.7356   -0.8339    0.0000 C   0  0  0  0  0  0  0  0  0  0  0  0
    9.4576   -1.2509    0.0000 C   0  0  0  0  0  0  0  0  0  0  0  0
   10.1695   -0.8441    0.0000 C   0  0  0  0  0  0  0  0  0  0  0  0
  1  2  1  0
  1  4  1  0
  1  8  1  0
  1 22  1  1
  2  6  1  0
  2  7  1  0
  2 19  1  6
  3 10  1  0
  3  9  1  0
  3 23  1  1
  3  5  1  0
  4 14  1  0
  4 15  2  0
  5  6  1  0
  5 11  1  1
  6 13  1  6
  7 10  1  0
  7 24  1  1
  8 16  2  0
  9 18  1  1
  9 12  1  0
 11 12  1  0
 12 26  1  6
 13 14  1  0
 14 25  1  6
 15 17  1  0
 16 17  1  0
 17 21  2  0
 18 20  2  0
 18 28  1  0
 27 28  1  0
 27 29  1  0
 29 30  2  0
 29 31  1  0
 31 32  1  0
 32 33  1  0
 33 34  1  0
M  END
>  <Formula>  (691) 
C27H36F2O5

>  <FW>  (691) 
478.5685

>  <DSSTox_CID>  (691) 
28524

>  <NR-AR>  (691) 
1

>  <NR-AR-LBD>  (691) 
1

>  <NR-ER>  (691) 
0

>  <NR-ER-LBD>  (691) 
0

>  <NR-PPAR-gamma>  (691) 
0

>  <SR-ATAD5>  (691) 
0

>  <SR-MMP>  (691) 
0

>  <SR-p53>  (691) 
0

$$$$
NCGC00185763-01
     RDKit          2D

 35 37  0  0  1  0  0  0  0  0999 V2000
    2.1706   -3.5388    0.0000 C   0  0  0  0  0  0  0  0  0  0  0  0
    4.3104   -2.3147    0.0000 C   0  0  0  0  0  0  0  0  0  0  0  0
    2.1706   -4.3721    0.0000 C   0  0  0  0  0  0  0  0  0  0  0  0
    5.1025   -2.0575    0.0000 C   0  0  0  0  0  0  0  0  0  0  0  0
    2.8804   -3.1376    0.0000 C   0  0  0  0  0  0  0  0  0  0  0  0
    3.5903   -3.5594    0.0000 C   0  0  0  0  0  0  0  0  0  0  0  0
    4.3104   -3.1479    0.0000 C   0  0  0  0  0  0  0  0  0  0  0  0
    1.4505   -3.1376    0.0000 C   0  0  0  0  0  0  0  0  0  0  0  0
    3.5903   -1.9134    0.0000 C   0  0  0  0  0  0  0  0  0  0  0  0
    2.8804   -2.3147    0.0000 C   0  0  0  0  0  0  0  0  0  0  0  0
    3.5903   -4.3618    0.0000 C   0  0  0  0  0  0  0  0  0  0  0  0
    1.4505   -4.7836    0.0000 C   0  0  0  0  0  0  0  0  0  0  0  0
    2.8804   -4.7836    0.0000 C   0  0  0  0  0  0  0  0  0  0  0  0
    5.1025   -1.2139    0.0000 C   0  0  0  0  0  0  0  0  0  0  0  0
    5.5552   -2.7364    0.0000 C   0  0  0  0  0  0  0  0  0  0  0  0
    5.0922   -3.3948    0.0000 C   0  0  0  0  0  0  0  0  0  0  0  0
    0.7201   -3.5594    0.0000 C   0  0  0  0  0  0  0  0  0  0  0  0
    0.7201   -4.3618    0.0000 C   0  0  0  0  0  0  0  0  0  0  0  0
    9.5054   -1.3991    0.0000 C   0  0  0  0  0  0  0  0  0  0  0  0
    7.2937   -0.8744    0.0000 C   0  0  0  0  0  0  0  0  0  0  0  0
    5.8226   -0.8333    0.0000 C   0  0  0  0  0  0  0  0  0  0  0  0
    9.5054   -2.2632    0.0000 O   0  0  0  0  0  0  0  0  0  0  0  0
    4.3927   -0.7921    0.0000 O   0  0  0  0  0  0  0  0  0  0  0  0
    6.5221   -1.2756    0.0000 O   0  0  0  0  0  0  0  0  0  0  0  0
   10.2873   -0.9979    0.0000 O   0  0  0  0  0  0  0  0  0  0  0  0
    7.3040    0.0000    0.0000 O   0  0  0  0  0  0  0  0  0  0  0  0
    0.0000   -4.7630    0.0000 O   0  0  0  0  0  0  0  0  0  0  0  0
    5.9255   -2.0677    0.0000 O   0  0  0  0  0  0  0  0  0  0  0  0
    2.1706   -2.7261    0.0000 C   0  0  0  0  0  0  0  0  0  0  0  0
    4.3104   -1.4916    0.0000 C   0  0  0  0  0  0  0  0  0  0  0  0
    2.1500   -1.9032    0.0000 O   0  0  0  0  0  0  0  0  0  0  0  0
    8.7956   -0.9362    0.0000 C   0  0  0  0  0  0  0  0  0  0  0  0
    8.0241   -1.3373    0.0000 C   0  0  0  0  0  0  0  0  0  0  0  0
    2.8804   -5.6066    0.0000 C   0  0  0  0  0  0  0  0  0  0  0  0
    8.4973   -2.5410    0.0000 Na  0  0  0  0  0 15  0  0  0  0  0  0
  1  3  1  0
  1  5  1  0
  1  8  1  0
  1 29  1  1
  2  9  1  0
  2  4  1  0
  2 30  1  1
  2  7  1  0
  3 12  2  0
  3 13  1  0
  4 14  1  0
  4 28  1  6
  4 15  1  0
  5  6  1  0
  5 10  1  1
  6  7  1  0
  6 11  1  6
  7 16  1  1
  8 17  2  0
  9 10  1  0
 10 31  1  1
 11 13  1  0
 12 18  1  0
 13 34  1  6
 14 21  1  0
 14 23  2  0
 15 16  1  0
 17 18  1  0
 18 27  2  0
 19 32  1  0
 19 22  1  0
 19 25  2  0
 20 24  1  0
 20 26  2  0
 20 33  1  0
 21 24  1  0
 32 33  1  0
M  CHG  2  22  -1  35   1
M  END
>  <Formula>  (692) 
C26H33NaO8

>  <FW>  (692) 
496.5252 (473.5360+22.9892)

>  <DSSTox_CID>  (692) 
3303

>  <NR-AR>  (692) 
1

>  <NR-AR-LBD>  (692) 
1

>  <NR-ER-LBD>  (692) 
0

>  <NR-PPAR-gamma>  (692) 
0

>  <NR-AhR>  (692) 
0

>  <SR-ATAD5>  (692) 
0

>  <SR-MMP>  (692) 
0

>  <SR-p53>  (692) 
0

$$$$
NCGC00185748-01
     RDKit          2D

 31 34  0  0  1  0  0  0  0  0999 V2000
    2.1430   -3.5637    0.0000 C   0  0  0  0  0  0  0  0  0  0  0  0
    4.2939   -2.3414    0.0000 C   0  0  0  0  0  0  0  0  0  0  0  0
    2.1430   -4.3812    0.0000 C   0  0  0  0  0  0  0  0  0  0  0  0
    4.2939   -3.1590    0.0000 C   0  0  0  0  0  0  0  0  0  0  0  0
    5.0797   -2.0636    0.0000 C   0  0  0  0  0  0  0  0  0  0  0  0
    3.5717   -3.5637    0.0000 C   0  0  0  0  0  0  0  0  0  0  0  0
    2.8573   -3.1590    0.0000 C   0  0  0  0  0  0  0  0  0  0  0  0
    1.4524   -3.1590    0.0000 C   0  0  0  0  0  0  0  0  0  0  0  0
    3.5717   -1.9208    0.0000 C   0  0  0  0  0  0  0  0  0  0  0  0
    2.8573   -2.3414    0.0000 C   0  0  0  0  0  0  0  0  0  0  0  0
    5.5559   -2.7383    0.0000 C   0  0  0  0  0  0  0  0  0  0  0  0
    5.0638   -3.3970    0.0000 C   0  0  0  0  0  0  0  0  0  0  0  0
    3.5717   -4.3812    0.0000 C   0  0  0  0  0  0  0  0  0  0  0  0
    2.8573   -4.7940    0.0000 C   0  0  0  0  0  0  0  0  0  0  0  0
    1.4524   -4.7940    0.0000 C   0  0  0  0  0  0  0  0  0  0  0  0
    5.0797   -1.2461    0.0000 C   0  0  0  0  0  0  0  0  0  0  0  0
    0.7302   -3.5637    0.0000 C   0  0  0  0  0  0  0  0  0  0  0  0
    0.7302   -4.3812    0.0000 C   0  0  0  0  0  0  0  0  0  0  0  0
    4.3574   -0.8255    0.0000 O   0  0  0  0  0  0  0  0  0  0  0  0
    0.0000   -4.8098    0.0000 O   0  0  0  0  0  0  0  0  0  0  0  0
    5.5639   -1.5556    0.0000 O   0  0  0  0  0  0  0  0  0  0  0  0
    2.1430   -2.7383    0.0000 C   0  0  0  0  0  0  0  0  0  0  0  0
    4.2939   -1.5001    0.0000 C   0  0  0  0  0  0  0  0  0  0  0  0
    2.8573   -5.4765    0.0000 F   0  0  0  0  0  0  0  0  0  0  0  0
    2.1271   -1.9049    0.0000 O   0  0  0  0  0  0  0  0  0  0  0  0
    5.7940   -0.8255    0.0000 C   0  0  0  0  0  0  0  0  0  0  0  0
    6.2623   -2.7383    0.0000 C   0  0  0  0  0  0  0  0  0  0  0  0
    6.5084   -1.2461    0.0000 O   0  0  0  0  0  0  0  0  0  0  0  0
    7.2227   -0.8255    0.0000 C   0  0  0  0  0  0  0  0  0  0  0  0
    7.9370   -1.2461    0.0000 O   0  0  0  0  0  0  0  0  0  0  0  0
    7.2227    0.0000    0.0000 C   0  0  0  0  0  0  0  0  0  0  0  0
  1  3  1  0
  1  7  1  0
  1  8  1  0
  1 22  1  1
  2  9  1  0
  2  5  1  0
  2 23  1  1
  2  4  1  0
  3 14  1  0
  3 15  2  0
  4  6  1  0
  4 12  1  1
  5 16  1  0
  5 21  1  6
  5 11  1  0
  6  7  1  0
  6 13  1  6
  7 10  1  1
  8 17  2  0
  9 10  1  0
 10 25  1  1
 11 12  1  0
 11 27  1  6
 13 14  1  0
 14 24  1  6
 15 18  1  0
 16 19  2  0
 16 26  1  0
 17 18  1  0
 18 20  2  0
 26 28  1  0
 28 29  1  0
 29 30  2  0
 29 31  1  0
M  END
>  <Formula>  (693) 
C24H31FO6

>  <FW>  (693) 
434.4977

>  <DSSTox_CID>  (693) 
3422

>  <NR-AR>  (693) 
1

>  <NR-AR-LBD>  (693) 
1

>  <NR-ER>  (693) 
0

>  <NR-ER-LBD>  (693) 
0

>  <NR-PPAR-gamma>  (693) 
0

>  <SR-ATAD5>  (693) 
0

>  <SR-MMP>  (693) 
0

>  <SR-p53>  (693) 
0

$$$$
NCGC00182066-02
     RDKit          2D

 31 34  0  0  1  0  0  0  0  0999 V2000
    4.3094   -2.4456    0.0000 C   0  0  0  0  0  0  0  0  0  0  0  0
    2.8771   -3.2712    0.0000 C   0  0  0  0  0  0  0  0  0  0  0  0
    2.1704   -3.6903    0.0000 C   0  0  0  0  0  0  0  0  0  0  0  0
    4.3094   -3.2712    0.0000 C   0  0  0  0  0  0  0  0  0  0  0  0
    5.0976   -2.1954    0.0000 C   0  0  0  0  0  0  0  0  0  0  0  0
    3.5652   -3.6903    0.0000 C   0  0  0  0  0  0  0  0  0  0  0  0
    5.5604   -2.8584    0.0000 C   0  0  0  0  0  0  0  0  0  0  0  0
    2.1704   -4.5033    0.0000 C   0  0  0  0  0  0  0  0  0  0  0  0
    2.8771   -2.4456    0.0000 C   0  0  0  0  0  0  0  0  0  0  0  0
    3.5652   -2.0265    0.0000 C   0  0  0  0  0  0  0  0  0  0  0  0
    5.0976   -3.5151    0.0000 C   0  0  0  0  0  0  0  0  0  0  0  0
    1.4510   -3.2712    0.0000 C   0  0  0  0  0  0  0  0  0  0  0  0
    5.0976   -1.3260    0.0000 C   0  0  0  0  0  0  0  0  0  0  0  0
    1.4510   -4.9224    0.0000 C   0  0  0  0  0  0  0  0  0  0  0  0
    3.5652   -4.5033    0.0000 C   0  0  0  0  0  0  0  0  0  0  0  0
    0.7381   -3.6903    0.0000 C   0  0  0  0  0  0  0  0  0  0  0  0
    0.7381   -4.5033    0.0000 C   0  0  0  0  0  0  0  0  0  0  0  0
    2.8771   -4.9224    0.0000 C   0  0  0  0  0  0  0  0  0  0  0  0
    2.8271   -0.7881    0.0000 C   0  0  0  0  0  0  0  0  0  0  0  0
    6.2547   -2.8584    0.0000 C   0  0  0  0  0  0  0  0  0  0  0  0
    2.8771   -4.1031    0.0000 F   0  0  0  0  0  0  0  0  0  0  0  0
    4.3532   -0.8882    0.0000 C   0  0  0  0  0  0  0  0  0  0  0  0
    5.8043   -0.8882    0.0000 O   0  0  0  0  0  0  0  0  0  0  0  0
    3.5652   -1.2384    0.0000 O   0  0  0  0  0  0  0  0  0  0  0  0
    2.0890   -1.2071    0.0000 O   0  0  0  0  0  0  0  0  0  0  0  0
    0.0000   -4.9224    0.0000 O   0  0  0  0  0  0  0  0  0  0  0  0
    6.0232   -2.1954    0.0000 O   0  0  0  0  0  0  0  0  0  0  0  0
    4.3094   -1.6262    0.0000 C   0  0  0  0  0  0  0  0  0  0  0  0
    2.1704   -2.0265    0.0000 O   0  0  0  0  0  0  0  0  0  0  0  0
    2.1704   -2.8584    0.0000 C   0  0  0  0  0  0  0  0  0  0  0  0
    2.8271    0.0000    0.0000 C   0  0  0  0  0  0  0  0  0  0  0  0
  1  4  1  0
  1  5  1  0
  1 10  1  0
  1 28  1  1
  2  9  1  0
  2  3  1  0
  2 21  1  6
  2  6  1  0
  3  8  1  0
  3 12  1  0
  3 30  1  1
  4  6  1  0
  4 11  1  0
  5  7  1  0
  5 13  1  0
  5 27  1  6
  6 15  1  0
  7 20  2  0
  7 11  1  0
  8 14  2  0
  8 18  1  0
  9 10  1  0
  9 29  1  1
 12 16  2  0
 13 22  1  0
 13 23  2  0
 14 17  1  0
 15 18  1  0
 16 17  1  0
 17 26  2  0
 19 24  1  0
 19 25  2  0
 19 31  1  0
 22 24  1  0
M  END
>  <Formula>  (694) 
C24H29FO6

>  <FW>  (694) 
432.4819

>  <DSSTox_CID>  (694) 
28645

>  <NR-AR>  (694) 
1

>  <NR-AR-LBD>  (694) 
1

>  <NR-ER-LBD>  (694) 
0

>  <NR-PPAR-gamma>  (694) 
0

>  <NR-AhR>  (694) 
0

>  <SR-ATAD5>  (694) 
0

>  <SR-MMP>  (694) 
0

>  <SR-p53>  (694) 
0

$$$$
NCGC00022408-03
     RDKit          2D

 35 38  0  0  1  0  0  0  0  0999 V2000
    2.1780   -3.2753    0.0000 C   0  0  0  0  0  0  0  0  0  0  0  0
    4.2900   -2.0708    0.0000 C   0  0  0  0  0  0  0  0  0  0  0  0
    2.8628   -2.8958    0.0000 C   0  0  0  0  0  0  0  0  0  0  0  0
    2.1780   -4.1250    0.0000 C   0  0  0  0  0  0  0  0  0  0  0  0
    4.2900   -2.8958    0.0000 C   0  0  0  0  0  0  0  0  0  0  0  0
    3.5805   -3.2753    0.0000 C   0  0  0  0  0  0  0  0  0  0  0  0
    5.0903   -1.7903    0.0000 C   0  0  0  0  0  0  0  0  0  0  0  0
    2.8628   -2.0708    0.0000 C   0  0  0  0  0  0  0  0  0  0  0  0
    1.4603   -2.8958    0.0000 C   0  0  0  0  0  0  0  0  0  0  0  0
    3.5805   -1.6500    0.0000 C   0  0  0  0  0  0  0  0  0  0  0  0
    5.5522   -2.4750    0.0000 C   0  0  0  0  0  0  0  0  0  0  0  0
    5.0573   -3.1433    0.0000 C   0  0  0  0  0  0  0  0  0  0  0  0
    3.5805   -4.1250    0.0000 C   0  0  0  0  0  0  0  0  0  0  0  0
    2.8628   -4.5458    0.0000 C   0  0  0  0  0  0  0  0  0  0  0  0
    1.4603   -4.5458    0.0000 C   0  0  0  0  0  0  0  0  0  0  0  0
    5.0903   -0.9653    0.0000 C   0  0  0  0  0  0  0  0  0  0  0  0
    7.0950   -0.6683    0.0000 C   0  0  0  0  0  0  0  0  0  0  0  0
    0.7177   -3.2753    0.0000 C   0  0  0  0  0  0  0  0  0  0  0  0
    0.7177   -4.1250    0.0000 C   0  0  0  0  0  0  0  0  0  0  0  0
    7.6478   -1.0230    0.0000 C   0  0  0  0  0  0  0  0  0  0  0  0
    6.5175   -0.9983    0.0000 O   0  0  0  0  0  0  0  0  0  0  0  0
    5.8080   -0.5775    0.0000 C   0  0  0  0  0  0  0  0  0  0  0  0
    2.8298   -3.5805    0.0000 F   0  0  0  0  0  0  0  0  0  0  0  0
    7.0950    0.0000    0.0000 O   0  0  0  0  0  0  0  0  0  0  0  0
    4.3725   -0.5610    0.0000 O   0  0  0  0  0  0  0  0  0  0  0  0
    0.0000   -4.5623    0.0000 O   0  0  0  0  0  0  0  0  0  0  0  0
    5.9153   -1.7903    0.0000 O   0  0  0  0  0  0  0  0  0  0  0  0
    2.1780   -2.4750    0.0000 C   0  0  0  0  0  0  0  0  0  0  0  0
    4.2900   -1.2128    0.0000 C   0  0  0  0  0  0  0  0  0  0  0  0
    2.1450   -1.6500    0.0000 O   0  0  0  0  0  0  0  0  0  0  0  0
    2.8298   -5.2306    0.0000 F   0  0  0  0  0  0  0  0  0  0  0  0
    6.3772   -2.4503    0.0000 C   0  0  0  0  0  0  0  0  0  0  0  0
    7.2848   -1.6253    0.0000 C   0  0  0  0  0  0  0  0  0  0  0  0
    8.0273   -0.4455    0.0000 C   0  0  0  0  0  0  0  0  0  0  0  0
    8.2501   -1.4025    0.0000 C   0  0  0  0  0  0  0  0  0  0  0  0
  1  3  1  0
  1  4  1  0
  1  9  1  0
  1 28  1  0
  2 10  1  0
  2  7  1  0
  2 29  1  0
  2  5  1  0
  3  6  1  0
  3  8  1  0
  3 23  1  6
  4 14  1  0
  4 15  2  0
  5  6  1  0
  5 12  1  1
  6 13  1  0
  7 16  1  0
  7 27  1  6
  7 11  1  0
  8 10  1  0
  8 30  1  1
  9 18  2  0
 11 12  1  0
 11 32  1  6
 13 14  1  0
 14 31  1  6
 15 19  1  0
 16 22  1  0
 16 25  2  0
 17 21  1  0
 17 20  1  0
 17 24  2  0
 18 19  1  0
 19 26  2  0
 20 33  1  0
 20 34  1  0
 20 35  1  0
 21 22  1  0
M  END
>  <Formula>  (695) 
C27H36F2O6

>  <FW>  (695) 
494.5679

>  <DSSTox_CID>  (695) 
28931

>  <NR-AR>  (695) 
1

>  <NR-AR-LBD>  (695) 
1

>  <NR-ER>  (695) 
0

>  <NR-ER-LBD>  (695) 
0

>  <NR-PPAR-gamma>  (695) 
0

>  <SR-ATAD5>  (695) 
0

>  <SR-MMP>  (695) 
1

>  <SR-p53>  (695) 
0

$$$$
NCGC00182067-02
     RDKit          2D

 27 30  0  0  1  0  0  0  0  0999 V2000
    2.1799   -2.8775    0.0000 C   0  0  0  0  0  0  0  0  0  0  0  0
    4.3128   -1.6366    0.0000 C   0  0  0  0  0  0  0  0  0  0  0  0
    2.1799   -3.7025    0.0000 C   0  0  0  0  0  0  0  0  0  0  0  0
    5.1110   -1.3817    0.0000 C   0  0  0  0  0  0  0  0  0  0  0  0
    2.8976   -2.4750    0.0000 C   0  0  0  0  0  0  0  0  0  0  0  0
    3.6085   -2.8775    0.0000 C   0  0  0  0  0  0  0  0  0  0  0  0
    4.3128   -2.4750    0.0000 C   0  0  0  0  0  0  0  0  0  0  0  0
    1.4555   -2.4750    0.0000 C   0  0  0  0  0  0  0  0  0  0  0  0
    3.6085   -1.2207    0.0000 C   0  0  0  0  0  0  0  0  0  0  0  0
    2.8976   -1.6366    0.0000 C   0  0  0  0  0  0  0  0  0  0  0  0
    3.6085   -3.7025    0.0000 C   0  0  0  0  0  0  0  0  0  0  0  0
    2.8976   -4.1116    0.0000 C   0  0  0  0  0  0  0  0  0  0  0  0
    1.4555   -4.1116    0.0000 C   0  0  0  0  0  0  0  0  0  0  0  0
    5.3391   -0.5969    0.0000 C   0  0  0  0  0  0  0  0  0  0  0  0
    5.5872   -2.0457    0.0000 C   0  0  0  0  0  0  0  0  0  0  0  0
    5.1110   -2.7299    0.0000 C   0  0  0  0  0  0  0  0  0  0  0  0
    0.7445   -2.8775    0.0000 C   0  0  0  0  0  0  0  0  0  0  0  0
    0.7445   -3.7025    0.0000 C   0  0  0  0  0  0  0  0  0  0  0  0
    4.7757    0.0000    0.0000 O   0  0  0  0  0  0  0  0  0  0  0  0
    0.0000   -4.1116    0.0000 O   0  0  0  0  0  0  0  0  0  0  0  0
    5.9427   -1.4421    0.0000 O   0  0  0  0  0  0  0  0  0  0  0  0
    2.1799   -2.0457    0.0000 C   0  0  0  0  0  0  0  0  0  0  0  0
    4.3128   -0.7982    0.0000 C   0  0  0  0  0  0  0  0  0  0  0  0
    2.8976   -4.9433    0.0000 F   0  0  0  0  0  0  0  0  0  0  0  0
    2.1799   -1.2140    0.0000 O   0  0  0  0  0  0  0  0  0  0  0  0
    6.1439   -0.3890    0.0000 C   0  0  0  0  0  0  0  0  0  0  0  0
    6.7074   -0.9927    0.0000 O   0  0  0  0  0  0  0  0  0  0  0  0
  1  3  1  0
  1  5  1  0
  1  8  1  0
  1 22  1  1
  2  9  1  0
  2  4  1  0
  2 23  1  1
  2  7  1  0
  3 12  1  0
  3 13  2  0
  4 14  1  0
  4 21  1  6
  4 15  1  0
  5  6  1  0
  5 10  1  1
  6  7  1  0
  6 11  1  6
  7 16  1  1
  8 17  2  0
  9 10  1  0
 10 25  1  1
 11 12  1  0
 12 24  1  6
 13 18  1  0
 14 19  2  0
 14 26  1  0
 15 16  1  0
 17 18  1  0
 18 20  2  0
 26 27  1  0
M  END
>  <Formula>  (696) 
C21H27FO5

>  <FW>  (696) 
378.4345

>  <DSSTox_CID>  (696) 
26067

>  <NR-AR>  (696) 
1

>  <NR-AR-LBD>  (696) 
1

>  <NR-ER-LBD>  (696) 
0

>  <NR-PPAR-gamma>  (696) 
0

>  <NR-AhR>  (696) 
0

>  <SR-ATAD5>  (696) 
0

>  <SR-MMP>  (696) 
0

>  <SR-p53>  (696) 
0

$$$$
NCGC00159316-02
     RDKit          2D

 34 37  0  0  1  0  0  0  0  0999 V2000
    4.2948   -3.1366    0.0000 C   0  0  0  0  0  0  0  0  0  0  0  0
    2.8712   -3.9408    0.0000 C   0  0  0  0  0  0  0  0  0  0  0  0
    2.1554   -4.3510    0.0000 C   0  0  0  0  0  0  0  0  0  0  0  0
    4.2948   -3.9408    0.0000 C   0  0  0  0  0  0  0  0  0  0  0  0
    3.5789   -4.3510    0.0000 C   0  0  0  0  0  0  0  0  0  0  0  0
    5.0668   -2.8793    0.0000 C   0  0  0  0  0  0  0  0  0  0  0  0
    2.1554   -5.1875    0.0000 C   0  0  0  0  0  0  0  0  0  0  0  0
    2.8712   -3.1366    0.0000 C   0  0  0  0  0  0  0  0  0  0  0  0
    3.5789   -2.7184    0.0000 C   0  0  0  0  0  0  0  0  0  0  0  0
    5.5654   -3.5387    0.0000 C   0  0  0  0  0  0  0  0  0  0  0  0
    1.4638   -3.9408    0.0000 C   0  0  0  0  0  0  0  0  0  0  0  0
    5.0829   -4.1982    0.0000 C   0  0  0  0  0  0  0  0  0  0  0  0
    1.4638   -5.6057    0.0000 C   0  0  0  0  0  0  0  0  0  0  0  0
    5.0668   -2.0348    0.0000 C   0  0  0  0  0  0  0  0  0  0  0  0
    3.5789   -5.1875    0.0000 C   0  0  0  0  0  0  0  0  0  0  0  0
    0.7319   -4.3510    0.0000 C   0  0  0  0  0  0  0  0  0  0  0  0
    0.7319   -5.1875    0.0000 C   0  0  0  0  0  0  0  0  0  0  0  0
    2.8712   -5.6057    0.0000 C   0  0  0  0  0  0  0  0  0  0  0  0
    2.8551   -4.6566    0.0000 F   0  0  0  0  0  0  0  0  0  0  0  0
    4.3671   -1.6246    0.0000 O   0  0  0  0  0  0  0  0  0  0  0  0
    0.0000   -5.6137    0.0000 O   0  0  0  0  0  0  0  0  0  0  0  0
    5.9113   -2.8793    0.0000 O   0  0  0  0  0  0  0  0  0  0  0  0
    4.2948   -2.2921    0.0000 C   0  0  0  0  0  0  0  0  0  0  0  0
    2.1474   -2.7103    0.0000 O   0  0  0  0  0  0  0  0  0  0  0  0
    2.1554   -3.5387    0.0000 C   0  0  0  0  0  0  0  0  0  0  0  0
    6.3858   -3.5226    0.0000 C   0  0  0  0  0  0  0  0  0  0  0  0
    5.7665   -1.6246    0.0000 C   0  0  0  0  0  0  0  0  0  0  0  0
    5.7585   -0.8043    0.0000 O   0  0  0  0  0  0  0  0  0  0  0  0
    6.6190   -2.4691    0.0000 C   0  0  0  0  0  0  0  0  0  0  0  0
    7.3348   -2.8793    0.0000 O   0  0  0  0  0  0  0  0  0  0  0  0
    6.6190   -1.6407    0.0000 C   0  0  0  0  0  0  0  0  0  0  0  0
    7.3348   -1.2385    0.0000 C   0  0  0  0  0  0  0  0  0  0  0  0
    7.3348   -0.4262    0.0000 C   0  0  0  0  0  0  0  0  0  0  0  0
    8.0426    0.0000    0.0000 C   0  0  0  0  0  0  0  0  0  0  0  0
  1  4  1  0
  1  6  1  0
  1  9  1  0
  1 23  1  1
  2  8  1  0
  2  3  1  0
  2 19  1  6
  2  5  1  0
  3  7  1  0
  3 11  1  0
  3 25  1  1
  4  5  1  0
  4 12  1  1
  5 15  1  6
  6 10  1  0
  6 14  1  0
  6 22  1  6
  7 13  2  0
  7 18  1  0
  8  9  1  0
  8 24  1  1
 10 26  1  6
 10 12  1  0
 11 16  2  0
 13 17  1  0
 14 20  2  0
 14 27  1  0
 15 18  1  0
 16 17  1  0
 17 21  2  0
 22 29  1  0
 27 28  1  0
 29 30  2  0
 29 31  1  0
 31 32  1  0
 32 33  1  0
 33 34  1  0
M  END
>  <Formula>  (697) 
C27H37FO6

>  <FW>  (697) 
476.5775

>  <DSSTox_CID>  (697) 
2904

>  <NR-AR>  (697) 
1

>  <NR-AR-LBD>  (697) 
1

>  <NR-ER>  (697) 
0

>  <NR-ER-LBD>  (697) 
0

>  <NR-PPAR-gamma>  (697) 
0

>  <SR-ATAD5>  (697) 
0

>  <SR-MMP>  (697) 
1

>  <SR-p53>  (697) 
0

$$$$
NCGC00167464-01
     RDKit          2D

 32 33  0  0  1  0  0  0  0  0999 V2000
    4.3092   -3.8713    0.0000 C   0  0  0  0  0  0  0  0  0  0  0  0
    2.1577   -5.1151    0.0000 C   0  0  0  0  0  0  0  0  0  0  0  0
    5.0961   -3.6238    0.0000 C   0  0  0  0  0  0  0  0  0  0  0  0
    3.5984   -5.1151    0.0000 C   0  0  0  0  0  0  0  0  0  0  0  0
    4.3092   -4.7090    0.0000 C   0  0  0  0  0  0  0  0  0  0  0  0
    2.8686   -4.6963    0.0000 C   0  0  0  0  0  0  0  0  0  0  0  0
    2.1577   -5.9402    0.0000 C   0  0  0  0  0  0  0  0  0  0  0  0
    3.5857   -3.4651    0.0000 C   0  0  0  0  0  0  0  0  0  0  0  0
    2.8686   -3.8713    0.0000 C   0  0  0  0  0  0  0  0  0  0  0  0
    1.4470   -6.3464    0.0000 C   0  0  0  0  0  0  0  0  0  0  0  0
    5.0961   -2.7987    0.0000 C   0  0  0  0  0  0  0  0  0  0  0  0
    5.5594   -4.2774    0.0000 C   0  0  0  0  0  0  0  0  0  0  0  0
    5.0961   -4.9438    0.0000 C   0  0  0  0  0  0  0  0  0  0  0  0
    3.5984   -5.9275    0.0000 C   0  0  0  0  0  0  0  0  0  0  0  0
    1.4470   -4.6963    0.0000 C   0  0  0  0  0  0  0  0  0  0  0  0
    2.8686   -6.3464    0.0000 C   0  0  0  0  0  0  0  0  0  0  0  0
    0.7362   -5.9275    0.0000 C   0  0  0  0  0  0  0  0  0  0  0  0
    5.8069   -2.3863    0.0000 O   0  0  0  0  0  0  0  0  0  0  0  0
    0.0000   -6.3273    0.0000 O   0  0  0  0  0  0  0  0  0  0  0  0
    5.9211   -3.6555    0.0000 O   0  0  0  0  0  0  0  0  0  0  0  0
    4.3092   -3.0462    0.0000 C   0  0  0  0  0  0  0  0  0  0  0  0
    0.7362   -5.1151    0.0000 C   0  0  0  0  0  0  0  0  0  0  0  0
    2.1451   -3.4588    0.0000 O   0  0  0  0  0  0  0  0  0  0  0  0
    2.1577   -4.2774    0.0000 C   0  0  0  0  0  0  0  0  0  0  0  0
    4.3917   -2.3926    0.0000 C   0  0  0  0  0  0  0  0  0  0  0  0
    4.3917   -1.5675    0.0000 O   0  0  0  0  0  0  0  0  0  0  0  0
    5.1151   -1.1043    0.0000 P   0  0  0  0  0  0  0  0  0  0  0  0
    5.8196   -0.6664    0.0000 O   0  0  0  0  0  0  0  0  0  0  0  0
    5.5531   -1.8087    0.0000 O   0  0  0  0  0  0  0  0  0  0  0  0
    4.6899   -0.3998    0.0000 O   0  0  0  0  0  0  0  0  0  0  0  0
    3.7571   -0.0888    0.0000 Na  0  0  0  0  0 15  0  0  0  0  0  0
    6.2068    0.0000    0.0000 Na  0  0  0  0  0 15  0  0  0  0  0  0
  1  3  1  0
  1  5  1  0
  1  8  1  0
  1 21  1  1
  2  6  1  0
  2  7  1  0
  2 15  1  0
  2 24  1  1
  3 11  1  0
  3 12  1  0
  3 20  1  6
  4  5  1  0
  4 14  1  6
  4  6  1  0
  5 13  1  1
  6  9  1  1
  7 10  2  0
  7 16  1  0
  8  9  1  0
  9 23  1  1
 10 17  1  0
 11 18  2  0
 11 25  1  0
 12 13  1  0
 14 16  1  0
 15 22  1  0
 17 22  1  0
 17 19  2  0
 25 26  1  0
 26 27  1  0
 27 28  1  0
 27 29  2  0
 27 30  1  0
M  CHG  4  28  -1  30  -1  31   1  32   1
M  END
>  <Formula>  (698) 
C21H29Na2O8P

>  <FW>  (698) 
486.4035 (440.4250+22.9892+22.9892)

>  <DSSTox_CID>  (698) 
26647

>  <NR-AR>  (698) 
1

>  <NR-AR-LBD>  (698) 
1

>  <NR-ER>  (698) 
1

>  <NR-PPAR-gamma>  (698) 
0

>  <NR-AhR>  (698) 
0

>  <SR-ATAD5>  (698) 
0

>  <SR-MMP>  (698) 
0

>  <SR-p53>  (698) 
0

$$$$
NCGC00183865-01
     RDKit          2D

 26 29  0  0  1  0  0  0  0  0999 V2000
    6.5268   -0.4765    0.0000 C   0  0  0  0  0  0  0  0  0  0  0  0
    5.3128    0.0000    0.0000 O   0  0  0  0  0  0  0  0  0  0  0  0
    5.7109   -1.4163    0.0000 O   0  0  0  0  0  0  0  0  0  0  0  0
    2.1473   -1.8928    0.0000 C   0  0  0  0  0  0  0  0  0  0  0  0
    2.8261   -3.1655    0.0000 F   0  0  0  0  0  0  0  0  0  0  0  0
    0.7180   -3.5701    0.0000 C   0  0  0  0  0  0  0  0  0  0  0  0
    0.7180   -2.7478    0.0000 C   0  0  0  0  0  0  0  0  0  0  0  0
    1.4228   -2.3300    0.0000 C   0  0  0  0  0  0  0  0  0  0  0  0
    2.1408   -2.7478    0.0000 C   0  0  0  0  0  0  0  0  0  0  0  0
    2.8522   -2.3300    0.0000 C   0  0  0  0  0  0  0  0  0  0  0  0
    2.8522   -1.5142    0.0000 C   0  0  0  0  0  0  0  0  0  0  0  0
    3.5701   -1.1030    0.0000 C   0  0  0  0  0  0  0  0  0  0  0  0
    4.2881   -1.5142    0.0000 C   0  0  0  0  0  0  0  0  0  0  0  0
    5.0648   -1.2662    0.0000 C   0  0  0  0  0  0  0  0  0  0  0  0
    5.5543   -1.9319    0.0000 C   0  0  0  0  0  0  0  0  0  0  0  0
    5.0648   -2.5911    0.0000 C   0  0  0  0  0  0  0  0  0  0  0  0
    4.2881   -2.3300    0.0000 C   0  0  0  0  0  0  0  0  0  0  0  0
    3.5701   -2.7478    0.0000 C   0  0  0  0  0  0  0  0  0  0  0  0
    3.5701   -3.5701    0.0000 C   0  0  0  0  0  0  0  0  0  0  0  0
    2.8522   -3.9813    0.0000 C   0  0  0  0  0  0  0  0  0  0  0  0
    2.1408   -3.5701    0.0000 C   0  0  0  0  0  0  0  0  0  0  0  0
    1.4228   -3.9813    0.0000 C   0  0  0  0  0  0  0  0  0  0  0  0
    5.7436   -0.7767    0.0000 C   0  0  0  0  0  0  0  0  0  0  0  0
    4.2881   -0.6853    0.0000 C   0  0  0  0  0  0  0  0  0  0  0  0
    2.4475   -0.7963    0.0000 O   0  0  0  0  0  0  0  0  0  0  0  0
    0.0000   -3.9813    0.0000 O   0  0  0  0  0  0  0  0  0  0  0  0
  1 23  1  0
  2 23  2  0
 14  3  1  6
  9  4  1  1
  5 10  1  0
  6  7  1  0
  6 22  1  0
  6 26  2  0
  7  8  1  0
  8  9  1  0
  9 10  1  0
  9 21  1  0
 10 11  1  0
 10 18  1  0
 11 12  1  0
 11 25  1  1
 12 13  1  0
 13 14  1  0
 13 17  1  0
 13 24  1  1
 14 15  1  0
 14 23  1  0
 15 16  1  0
 17 16  1  1
 17 18  1  0
 18 19  1  6
 19 20  1  0
 20 21  1  0
 21 22  2  0
M  END
>  <Formula>  (699) 
C21H29FO4

>  <FW>  (699) 
364.4510

>  <DSSTox_CID>  (699) 
28691

>  <NR-AR-LBD>  (699) 
1

>  <NR-ER>  (699) 
0

>  <NR-ER-LBD>  (699) 
0

>  <NR-PPAR-gamma>  (699) 
0

>  <NR-AhR>  (699) 
0

>  <SR-ATAD5>  (699) 
0

>  <SR-MMP>  (699) 
0

>  <SR-p53>  (699) 
0

$$$$
NCGC00016442-01
     RDKit          2D

 27 30  0  0  1  0  0  0  0  0999 V2000
    2.1571   -2.8843    0.0000 C   0  0  0  0  0  0  0  0  0  0  0  0
    2.8660   -2.4749    0.0000 C   0  0  0  0  0  0  0  0  0  0  0  0
    4.3021   -1.6560    0.0000 C   0  0  0  0  0  0  0  0  0  0  0  0
    2.1571   -3.7154    0.0000 C   0  0  0  0  0  0  0  0  0  0  0  0
    3.5871   -2.8843    0.0000 C   0  0  0  0  0  0  0  0  0  0  0  0
    5.0843   -1.3872    0.0000 C   0  0  0  0  0  0  0  0  0  0  0  0
    4.3021   -2.4749    0.0000 C   0  0  0  0  0  0  0  0  0  0  0  0
    2.8660   -1.6560    0.0000 C   0  0  0  0  0  0  0  0  0  0  0  0
    1.4605   -2.4749    0.0000 C   0  0  0  0  0  0  0  0  0  0  0  0
    3.5871   -1.2466    0.0000 C   0  0  0  0  0  0  0  0  0  0  0  0
    3.5871   -3.7154    0.0000 C   0  0  0  0  0  0  0  0  0  0  0  0
    1.4605   -4.1249    0.0000 C   0  0  0  0  0  0  0  0  0  0  0  0
    2.8660   -4.1249    0.0000 C   0  0  0  0  0  0  0  0  0  0  0  0
    5.5793   -2.0655    0.0000 C   0  0  0  0  0  0  0  0  0  0  0  0
    5.0843   -2.7255    0.0000 C   0  0  0  0  0  0  0  0  0  0  0  0
    0.7394   -2.8843    0.0000 C   0  0  0  0  0  0  0  0  0  0  0  0
    5.3104   -0.5989    0.0000 C   0  0  0  0  0  0  0  0  0  0  0  0
    0.7394   -3.7154    0.0000 C   0  0  0  0  0  0  0  0  0  0  0  0
    2.8660   -3.1838    0.0000 F   0  0  0  0  0  0  0  0  0  0  0  0
    4.7360    0.0000    0.0000 O   0  0  0  0  0  0  0  0  0  0  0  0
    0.0000   -4.1432    0.0000 O   0  0  0  0  0  0  0  0  0  0  0  0
    5.9215   -1.3872    0.0000 O   0  0  0  0  0  0  0  0  0  0  0  0
    2.1571   -2.0655    0.0000 C   0  0  0  0  0  0  0  0  0  0  0  0
    4.3021   -0.8189    0.0000 C   0  0  0  0  0  0  0  0  0  0  0  0
    2.1449   -1.2283    0.0000 O   0  0  0  0  0  0  0  0  0  0  0  0
    2.8783   -4.7726    0.0000 C   0  0  0  0  0  0  0  0  0  0  0  0
    6.1109   -0.3911    0.0000 C   0  0  0  0  0  0  0  0  0  0  0  0
  1  2  1  0
  1  4  1  0
  1  9  1  0
  1 23  1  1
  2  5  1  0
  2  8  1  0
  2 19  1  6
  3 10  1  0
  3  6  1  0
  3 24  1  1
  3  7  1  0
  4 12  2  0
  4 13  1  0
  5  7  1  0
  5 11  1  6
  6 17  1  0
  6 22  1  6
  6 14  1  0
  7 15  1  1
  8 10  1  0
  8 25  1  1
  9 16  2  0
 11 13  1  0
 12 18  1  0
 13 26  1  6
 14 15  1  0
 16 18  1  0
 17 20  2  0
 17 27  1  0
 18 21  2  0
M  END
>  <Formula>  (700) 
C22H29FO4

>  <FW>  (700) 
376.4617

>  <DSSTox_CID>  (700) 
27435

>  <NR-AR>  (700) 
1

>  <NR-AR-LBD>  (700) 
1

>  <NR-ER>  (700) 
0

>  <NR-ER-LBD>  (700) 
0

>  <NR-PPAR-gamma>  (700) 
0

>  <NR-AhR>  (700) 
0

>  <SR-ATAD5>  (700) 
0

>  <SR-p53>  (700) 
0

$$$$
NCGC00183274-01
     RDKit          2D

 31 34  0  0  1  0  0  0  0  0999 V2000
    4.3041   -1.6524    0.0000 C   0  0  0  0  0  0  0  0  0  0  0  0
    2.8775   -2.4906    0.0000 C   0  0  0  0  0  0  0  0  0  0  0  0
    2.1682   -2.8936    0.0000 C   0  0  0  0  0  0  0  0  0  0  0  0
    4.3041   -2.4906    0.0000 C   0  0  0  0  0  0  0  0  0  0  0  0
    5.0941   -1.3944    0.0000 C   0  0  0  0  0  0  0  0  0  0  0  0
    3.5949   -2.8936    0.0000 C   0  0  0  0  0  0  0  0  0  0  0  0
    2.1682   -3.7158    0.0000 C   0  0  0  0  0  0  0  0  0  0  0  0
    2.8775   -1.6524    0.0000 C   0  0  0  0  0  0  0  0  0  0  0  0
    3.5949   -1.2413    0.0000 C   0  0  0  0  0  0  0  0  0  0  0  0
    5.5777   -2.0554    0.0000 C   0  0  0  0  0  0  0  0  0  0  0  0
    1.4669   -2.4906    0.0000 C   0  0  0  0  0  0  0  0  0  0  0  0
    5.0941   -2.7244    0.0000 C   0  0  0  0  0  0  0  0  0  0  0  0
    5.3198   -0.5965    0.0000 C   0  0  0  0  0  0  0  0  0  0  0  0
    1.4669   -4.1188    0.0000 C   0  0  0  0  0  0  0  0  0  0  0  0
    3.5949   -3.7158    0.0000 C   0  0  0  0  0  0  0  0  0  0  0  0
    0.7335   -2.8936    0.0000 C   0  0  0  0  0  0  0  0  0  0  0  0
    0.7335   -3.7158    0.0000 C   0  0  0  0  0  0  0  0  0  0  0  0
    2.8775   -4.1188    0.0000 C   0  0  0  0  0  0  0  0  0  0  0  0
    2.8695   -3.1919    0.0000 F   0  0  0  0  0  0  0  0  0  0  0  0
    6.1177   -0.3869    0.0000 C   0  0  0  0  0  0  0  0  0  0  0  0
    4.7314    0.0000    0.0000 O   0  0  0  0  0  0  0  0  0  0  0  0
    6.6981   -0.9914    0.0000 O   0  0  0  0  0  0  0  0  0  0  0  0
    0.0000   -4.1510    0.0000 O   0  0  0  0  0  0  0  0  0  0  0  0
    5.9404   -1.3944    0.0000 O   0  0  0  0  0  0  0  0  0  0  0  0
    4.3041   -0.8222    0.0000 C   0  0  0  0  0  0  0  0  0  0  0  0
    2.1521   -1.2332    0.0000 O   0  0  0  0  0  0  0  0  0  0  0  0
    2.1682   -2.0554    0.0000 C   0  0  0  0  0  0  0  0  0  0  0  0
    6.4159   -2.0554    0.0000 C   0  0  0  0  0  0  0  0  0  0  0  0
    7.5041   -0.7899    0.0000 C   0  0  0  0  0  0  0  0  0  0  0  0
    7.7217   -0.0081    0.0000 O   0  0  0  0  0  0  0  0  0  0  0  0
    8.0602   -1.4025    0.0000 C   0  0  0  0  0  0  0  0  0  0  0  0
  1  4  1  0
  1  5  1  0
  1  9  1  0
  1 25  1  1
  2  8  1  0
  2  3  1  0
  2 19  1  6
  2  6  1  0
  3  7  1  0
  3 11  1  0
  3 27  1  1
  4  6  1  0
  4 12  1  1
  5 10  1  0
  5 13  1  0
  5 24  1  6
  6 15  1  6
  7 14  2  0
  7 18  1  0
  8  9  1  0
  8 26  1  1
 10 28  1  6
 10 12  1  0
 11 16  2  0
 13 20  1  0
 13 21  2  0
 14 17  1  0
 15 18  1  0
 16 17  1  0
 17 23  2  0
 20 22  1  0
 22 29  1  0
 29 30  2  0
 29 31  1  0
M  END
>  <Formula>  (701) 
C24H31FO6

>  <FW>  (701) 
434.4977

>  <DSSTox_CID>  (701) 
2901

>  <NR-AR>  (701) 
1

>  <NR-AR-LBD>  (701) 
1

>  <NR-ER>  (701) 
0

>  <NR-ER-LBD>  (701) 
0

>  <NR-AhR>  (701) 
0

>  <SR-ATAD5>  (701) 
0

>  <SR-MMP>  (701) 
0

>  <SR-p53>  (701) 
0

$$$$
NCGC00094765-01
     RDKit          2D

 29 32  0  0  1  0  0  0  0  0999 V2000
    4.3225   -2.3208    0.0000 C   0  0  0  0  0  0  0  0  0  0  0  0
    2.1772   -3.5250    0.0000 C   0  0  0  0  0  0  0  0  0  0  0  0
    5.1041   -2.0655    0.0000 C   0  0  0  0  0  0  0  0  0  0  0  0
    3.5968   -3.5410    0.0000 C   0  0  0  0  0  0  0  0  0  0  0  0
    4.3225   -3.1342    0.0000 C   0  0  0  0  0  0  0  0  0  0  0  0
    2.8790   -3.1342    0.0000 C   0  0  0  0  0  0  0  0  0  0  0  0
    2.1772   -4.3783    0.0000 C   0  0  0  0  0  0  0  0  0  0  0  0
    3.5968   -1.9060    0.0000 C   0  0  0  0  0  0  0  0  0  0  0  0
    2.8790   -2.3208    0.0000 C   0  0  0  0  0  0  0  0  0  0  0  0
    1.4594   -3.1342    0.0000 C   0  0  0  0  0  0  0  0  0  0  0  0
    5.1041   -1.2441    0.0000 C   0  0  0  0  0  0  0  0  0  0  0  0
    1.4594   -4.7771    0.0000 C   0  0  0  0  0  0  0  0  0  0  0  0
    5.5746   -2.7036    0.0000 C   0  0  0  0  0  0  0  0  0  0  0  0
    5.1041   -3.3974    0.0000 C   0  0  0  0  0  0  0  0  0  0  0  0
    3.5968   -4.3704    0.0000 C   0  0  0  0  0  0  0  0  0  0  0  0
    0.7337   -3.5410    0.0000 C   0  0  0  0  0  0  0  0  0  0  0  0
    0.7337   -4.3704    0.0000 C   0  0  0  0  0  0  0  0  0  0  0  0
    2.8790   -4.7771    0.0000 C   0  0  0  0  0  0  0  0  0  0  0  0
    7.2494   -0.8055    0.0000 C   0  0  0  0  0  0  0  0  0  0  0  0
    5.8058   -0.8214    0.0000 C   0  0  0  0  0  0  0  0  0  0  0  0
    4.4023   -0.8374    0.0000 O   0  0  0  0  0  0  0  0  0  0  0  0
    6.5316   -1.2441    0.0000 O   0  0  0  0  0  0  0  0  0  0  0  0
    7.2494    0.0000    0.0000 O   0  0  0  0  0  0  0  0  0  0  0  0
    0.0000   -4.7611    0.0000 O   0  0  0  0  0  0  0  0  0  0  0  0
    5.8856   -1.8183    0.0000 O   0  0  0  0  0  0  0  0  0  0  0  0
    4.3225   -1.4754    0.0000 C   0  0  0  0  0  0  0  0  0  0  0  0
    2.1692   -1.8981    0.0000 O   0  0  0  0  0  0  0  0  0  0  0  0
    2.1772   -2.7195    0.0000 C   0  0  0  0  0  0  0  0  0  0  0  0
    7.9751   -1.2281    0.0000 C   0  0  0  0  0  0  0  0  0  0  0  0
  1  3  1  0
  1  5  1  0
  1  8  1  0
  1 26  1  1
  2  6  1  0
  2  7  1  0
  2 10  1  0
  2 28  1  1
  3 11  1  0
  3 13  1  0
  3 25  1  6
  4  5  1  0
  4 15  1  6
  4  6  1  0
  5 14  1  1
  6  9  1  1
  7 12  2  0
  7 18  1  0
  8  9  1  0
  9 27  1  1
 10 16  2  0
 11 20  1  0
 11 21  2  0
 12 17  1  0
 13 14  1  0
 15 18  1  0
 16 17  1  0
 17 24  2  0
 19 22  1  0
 19 23  2  0
 19 29  1  0
 20 22  1  0
M  END
>  <Formula>  (702) 
C23H30O6

>  <FW>  (702) 
402.4807

>  <DSSTox_CID>  (702) 
3502

>  <NR-AR>  (702) 
1

>  <NR-AR-LBD>  (702) 
1

>  <NR-ER>  (702) 
1

>  <NR-PPAR-gamma>  (702) 
0

>  <NR-AhR>  (702) 
0

>  <SR-ATAD5>  (702) 
0

>  <SR-MMP>  (702) 
0

>  <SR-p53>  (702) 
0

$$$$
NCGC00164585-01
     RDKit          2D

 31 33  0  0  1  0  0  0  0  0999 V2000
    2.1550   -2.8889    0.0000 C   0  0  0  0  0  0  0  0  0  0  0  0
    4.2966   -1.6613    0.0000 C   0  0  0  0  0  0  0  0  0  0  0  0
    2.8689   -2.4886    0.0000 C   0  0  0  0  0  0  0  0  0  0  0  0
    2.1550   -3.7162    0.0000 C   0  0  0  0  0  0  0  0  0  0  0  0
    4.2966   -2.4886    0.0000 C   0  0  0  0  0  0  0  0  0  0  0  0
    3.5761   -2.8889    0.0000 C   0  0  0  0  0  0  0  0  0  0  0  0
    5.0773   -1.3944    0.0000 C   0  0  0  0  0  0  0  0  0  0  0  0
    1.4545   -2.4886    0.0000 C   0  0  0  0  0  0  0  0  0  0  0  0
    1.4545   -4.1298    0.0000 C   0  0  0  0  0  0  0  0  0  0  0  0
    2.8689   -1.6613    0.0000 C   0  0  0  0  0  0  0  0  0  0  0  0
    3.5761   -1.2476    0.0000 C   0  0  0  0  0  0  0  0  0  0  0  0
    0.7406   -2.8889    0.0000 C   0  0  0  0  0  0  0  0  0  0  0  0
    5.5643   -2.0816    0.0000 C   0  0  0  0  0  0  0  0  0  0  0  0
    0.7406   -3.7162    0.0000 C   0  0  0  0  0  0  0  0  0  0  0  0
    5.0773   -2.7355    0.0000 C   0  0  0  0  0  0  0  0  0  0  0  0
    3.5761   -3.7162    0.0000 C   0  0  0  0  0  0  0  0  0  0  0  0
    2.8689   -4.1298    0.0000 C   0  0  0  0  0  0  0  0  0  0  0  0
    5.3041   -0.5938    0.0000 C   0  0  0  0  0  0  0  0  0  0  0  0
    2.8822   -3.2692    0.0000 F   0  0  0  0  0  0  0  0  0  0  0  0
    0.0000   -4.1499    0.0000 O   0  0  0  0  0  0  0  0  0  0  0  0
    4.7236    0.0000    0.0000 O   0  0  0  0  0  0  0  0  0  0  0  0
    5.9113   -1.3944    0.0000 O   0  0  0  0  0  0  0  0  0  0  0  0
    0.0000   -2.4686    0.0000 Cl  0  0  0  0  0  0  0  0  0  0  0  0
    2.1550   -2.0816    0.0000 C   0  0  0  0  0  0  0  0  0  0  0  0
    4.2966   -0.8206    0.0000 C   0  0  0  0  0  0  0  0  0  0  0  0
    2.1350   -1.2276    0.0000 O   0  0  0  0  0  0  0  0  0  0  0  0
    2.8689   -4.9705    0.0000 F   0  0  0  0  0  0  0  0  0  0  0  0
    6.3850   -2.0683    0.0000 C   0  0  0  0  0  0  0  0  0  0  0  0
    6.0980   -0.4003    0.0000 C   0  0  0  0  0  0  0  0  0  0  0  0
    6.6718   -0.9941    0.0000 O   0  0  0  0  0  0  0  0  0  0  0  0
    5.6244   -3.7229    0.0000 O   0  0  0  0  0  0  0  0  0  0  0  0
  1  3  1  0
  1  4  1  0
  1  8  1  0
  1 24  1  1
  2 11  1  0
  2  7  1  0
  2 25  1  1
  2  5  1  0
  3  6  1  0
  3 10  1  0
  3 19  1  6
  4  9  2  0
  4 17  1  0
  5  6  1  0
  5 15  1  1
  6 16  1  6
  7 18  1  0
  7 22  1  6
  7 13  1  0
  8 12  2  0
  9 14  1  0
 10 11  1  0
 10 26  1  1
 12 14  1  0
 12 23  1  0
 13 15  1  0
 13 28  1  6
 14 20  2  0
 16 17  1  0
 17 27  1  6
 18 21  2  0
 18 29  1  0
 29 30  1  0
M  END
>  <Formula>  (703) 
C22H29ClF2O6

>  <FW>  (703) 
462.9119 (444.8966+18.0153)

>  <DSSTox_CID>  (703) 
26460

>  <NR-AR>  (703) 
1

>  <NR-AR-LBD>  (703) 
1

>  <NR-ER>  (703) 
0

>  <NR-ER-LBD>  (703) 
0

>  <NR-PPAR-gamma>  (703) 
0

>  <NR-AhR>  (703) 
0

>  <SR-ATAD5>  (703) 
0

>  <SR-p53>  (703) 
0

$$$$
NCGC00016604-01
     RDKit          2D

 29 32  0  0  1  0  0  0  0  0999 V2000
    6.4825    0.0000    0.0000 O   0  0  0  0  0  0  0  0  0  0  0  0
    2.1717   -3.1894    0.0000 C   0  0  0  0  0  0  0  0  0  0  0  0
    4.3174   -1.9513    0.0000 C   0  0  0  0  0  0  0  0  0  0  0  0
    2.8847   -2.7810    0.0000 C   0  0  0  0  0  0  0  0  0  0  0  0
    2.1717   -4.0192    0.0000 C   0  0  0  0  0  0  0  0  0  0  0  0
    4.3174   -2.7810    0.0000 C   0  0  0  0  0  0  0  0  0  0  0  0
    3.5978   -3.1894    0.0000 C   0  0  0  0  0  0  0  0  0  0  0  0
    5.1018   -1.6984    0.0000 C   0  0  0  0  0  0  0  0  0  0  0  0
    2.8847   -1.9513    0.0000 C   0  0  0  0  0  0  0  0  0  0  0  0
    1.4521   -2.7810    0.0000 C   0  0  0  0  0  0  0  0  0  0  0  0
    3.5978   -1.5363    0.0000 C   0  0  0  0  0  0  0  0  0  0  0  0
    5.5815   -2.3661    0.0000 C   0  0  0  0  0  0  0  0  0  0  0  0
    5.1018   -3.0339    0.0000 C   0  0  0  0  0  0  0  0  0  0  0  0
    3.5978   -4.0192    0.0000 C   0  0  0  0  0  0  0  0  0  0  0  0
    2.8847   -4.4276    0.0000 C   0  0  0  0  0  0  0  0  0  0  0  0
    1.4521   -4.4276    0.0000 C   0  0  0  0  0  0  0  0  0  0  0  0
    5.3287   -0.9075    0.0000 C   0  0  0  0  0  0  0  0  0  0  0  0
    0.7261   -3.1894    0.0000 C   0  0  0  0  0  0  0  0  0  0  0  0
    0.7261   -4.0127    0.0000 C   0  0  0  0  0  0  0  0  0  0  0  0
    2.8653   -3.5784    0.0000 F   0  0  0  0  0  0  0  0  0  0  0  0
    4.7582   -0.3177    0.0000 O   0  0  0  0  0  0  0  0  0  0  0  0
    0.0000   -4.4211    0.0000 O   0  0  0  0  0  0  0  0  0  0  0  0
    5.9186   -1.6142    0.0000 O   0  0  0  0  0  0  0  0  0  0  0  0
    2.1717   -2.3467    0.0000 C   0  0  0  0  0  0  0  0  0  0  0  0
    4.3368   -1.1669    0.0000 C   0  0  0  0  0  0  0  0  0  0  0  0
    2.1717   -1.5299    0.0000 O   0  0  0  0  0  0  0  0  0  0  0  0
    2.8847   -5.2573    0.0000 F   0  0  0  0  0  0  0  0  0  0  0  0
    6.4113   -2.3661    0.0000 C   0  0  0  0  0  0  0  0  0  0  0  0
    6.1260   -0.7001    0.0000 C   0  0  0  0  0  0  0  0  0  0  0  0
  1 29  1  0
  2  4  1  0
  2  5  1  0
  2 10  1  0
  2 24  1  1
  3 11  1  0
  3  8  1  0
  3 25  1  1
  3  6  1  0
  4  7  1  0
  4  9  1  0
  4 20  1  6
  5 15  1  0
  5 16  2  0
  6  7  1  0
  6 13  1  1
  7 14  1  6
  8 17  1  0
  8 23  1  6
  8 12  1  0
  9 11  1  0
  9 26  1  1
 10 18  2  0
 12 13  1  0
 12 28  1  6
 14 15  1  0
 15 27  1  6
 16 19  1  0
 17 21  2  0
 17 29  1  0
 18 19  1  0
 19 22  2  0
M  END
>  <Formula>  (704) 
C22H28F2O5

>  <FW>  (704) 
410.4515

>  <DSSTox_CID>  (704) 
25365

>  <NR-AR>  (704) 
1

>  <NR-AR-LBD>  (704) 
1

>  <NR-ER>  (704) 
0

>  <NR-ER-LBD>  (704) 
0

>  <NR-PPAR-gamma>  (704) 
0

>  <NR-AhR>  (704) 
0

>  <SR-MMP>  (704) 
0

>  <SR-p53>  (704) 
0

$$$$
NCGC00181081-01
     RDKit          2D

 27 30  0  0  1  0  0  0  0  0999 V2000
    4.3204   -1.6210    0.0000 C   0  0  0  0  0  0  0  0  0  0  0  0
    2.8803   -2.4449    0.0000 C   0  0  0  0  0  0  0  0  0  0  0  0
    2.1636   -2.8534    0.0000 C   0  0  0  0  0  0  0  0  0  0  0  0
    3.5970   -2.8601    0.0000 C   0  0  0  0  0  0  0  0  0  0  0  0
    5.1107   -1.3664    0.0000 C   0  0  0  0  0  0  0  0  0  0  0  0
    4.3204   -2.4516    0.0000 C   0  0  0  0  0  0  0  0  0  0  0  0
    2.1636   -3.6840    0.0000 C   0  0  0  0  0  0  0  0  0  0  0  0
    2.8803   -1.6210    0.0000 C   0  0  0  0  0  0  0  0  0  0  0  0
    3.5970   -1.2124    0.0000 C   0  0  0  0  0  0  0  0  0  0  0  0
    1.4535   -4.0926    0.0000 C   0  0  0  0  0  0  0  0  0  0  0  0
    5.3385   -0.5827    0.0000 C   0  0  0  0  0  0  0  0  0  0  0  0
    5.5863   -2.0161    0.0000 C   0  0  0  0  0  0  0  0  0  0  0  0
    5.1107   -2.6994    0.0000 C   0  0  0  0  0  0  0  0  0  0  0  0
    3.5970   -3.6840    0.0000 C   0  0  0  0  0  0  0  0  0  0  0  0
    1.4535   -2.4449    0.0000 C   0  0  0  0  0  0  0  0  0  0  0  0
    2.8803   -4.0926    0.0000 C   0  0  0  0  0  0  0  0  0  0  0  0
    0.7234   -3.6773    0.0000 C   0  0  0  0  0  0  0  0  0  0  0  0
    2.8601   -3.2084    0.0000 F   0  0  0  0  0  0  0  0  0  0  0  0
    4.7624    0.0000    0.0000 O   0  0  0  0  0  0  0  0  0  0  0  0
    0.0000   -4.0859    0.0000 O   0  0  0  0  0  0  0  0  0  0  0  0
    5.9213   -1.4602    0.0000 O   0  0  0  0  0  0  0  0  0  0  0  0
    4.3204   -0.7904    0.0000 C   0  0  0  0  0  0  0  0  0  0  0  0
    0.7234   -2.8601    0.0000 C   0  0  0  0  0  0  0  0  0  0  0  0
    2.1434   -1.1990    0.0000 O   0  0  0  0  0  0  0  0  0  0  0  0
    2.1636   -2.0161    0.0000 C   0  0  0  0  0  0  0  0  0  0  0  0
    6.1088   -0.3751    0.0000 C   0  0  0  0  0  0  0  0  0  0  0  0
    6.6983   -0.9646    0.0000 O   0  0  0  0  0  0  0  0  0  0  0  0
  1  5  1  0
  1  6  1  0
  1  9  1  0
  1 22  1  1
  2  8  1  0
  2  3  1  0
  2 18  1  6
  2  4  1  0
  3  7  1  0
  3 15  1  0
  3 25  1  1
  4  6  1  0
  4 14  1  6
  5 11  1  0
  5 12  1  0
  5 21  1  6
  6 13  1  1
  7 10  2  0
  7 16  1  0
  8  9  1  0
  8 24  1  1
 10 17  1  0
 11 19  2  0
 11 26  1  0
 12 13  1  0
 14 16  1  0
 15 23  1  0
 17 23  1  0
 17 20  2  0
 26 27  1  0
M  END
>  <Formula>  (705) 
C21H29FO5

>  <FW>  (705) 
380.4504

>  <DSSTox_CID>  (705) 
3061

>  <NR-AR>  (705) 
1

>  <NR-AR-LBD>  (705) 
1

>  <NR-ER>  (705) 
1

>  <NR-PPAR-gamma>  (705) 
0

>  <NR-AhR>  (705) 
0

>  <SR-ATAD5>  (705) 
0

>  <SR-MMP>  (705) 
0

>  <SR-p53>  (705) 
0

$$$$
NCGC00018263-02
     RDKit          2D

 32 35  0  0  1  0  0  0  0  0999 V2000
    4.3152   -2.3079    0.0000 C   0  0  0  0  0  0  0  0  0  0  0  0
    2.1576   -3.5547    0.0000 C   0  0  0  0  0  0  0  0  0  0  0  0
    5.1022   -2.0603    0.0000 C   0  0  0  0  0  0  0  0  0  0  0  0
    3.5990   -3.5547    0.0000 C   0  0  0  0  0  0  0  0  0  0  0  0
    4.3152   -3.1391    0.0000 C   0  0  0  0  0  0  0  0  0  0  0  0
    2.8738   -3.1303    0.0000 C   0  0  0  0  0  0  0  0  0  0  0  0
    2.1576   -4.3771    0.0000 C   0  0  0  0  0  0  0  0  0  0  0  0
    3.5901   -1.9011    0.0000 C   0  0  0  0  0  0  0  0  0  0  0  0
    2.8738   -2.3079    0.0000 C   0  0  0  0  0  0  0  0  0  0  0  0
    1.4502   -4.7838    0.0000 C   0  0  0  0  0  0  0  0  0  0  0  0
    5.1022   -1.2291    0.0000 C   0  0  0  0  0  0  0  0  0  0  0  0
    5.5708   -2.7147    0.0000 C   0  0  0  0  0  0  0  0  0  0  0  0
    5.1022   -3.3779    0.0000 C   0  0  0  0  0  0  0  0  0  0  0  0
    3.5990   -4.3682    0.0000 C   0  0  0  0  0  0  0  0  0  0  0  0
    1.4502   -3.1303    0.0000 C   0  0  0  0  0  0  0  0  0  0  0  0
    2.8738   -4.7838    0.0000 C   0  0  0  0  0  0  0  0  0  0  0  0
    0.7339   -4.3682    0.0000 C   0  0  0  0  0  0  0  0  0  0  0  0
    5.8184   -0.8135    0.0000 O   0  0  0  0  0  0  0  0  0  0  0  0
    0.0000   -4.7661    0.0000 O   0  0  0  0  0  0  0  0  0  0  0  0
    5.9245   -2.0869    0.0000 O   0  0  0  0  0  0  0  0  0  0  0  0
    4.3152   -1.4856    0.0000 C   0  0  0  0  0  0  0  0  0  0  0  0
    0.7339   -3.5547    0.0000 C   0  0  0  0  0  0  0  0  0  0  0  0
    2.1487   -1.8923    0.0000 O   0  0  0  0  0  0  0  0  0  0  0  0
    2.1576   -2.7147    0.0000 C   0  0  0  0  0  0  0  0  0  0  0  0
    4.3947   -0.8224    0.0000 C   0  0  0  0  0  0  0  0  0  0  0  0
    4.3947    0.0000    0.0000 O   0  0  0  0  0  0  0  0  0  0  0  0
    6.3136   -2.8208    0.0000 C   0  0  0  0  0  0  0  0  0  0  0  0
    7.2244   -2.8385    0.0000 C   0  0  0  0  0  0  0  0  0  0  0  0
    5.8803   -3.5193    0.0000 O   0  0  0  0  0  0  0  0  0  0  0  0
    7.5781   -2.1487    0.0000 C   0  0  0  0  0  0  0  0  0  0  0  0
    8.4093   -2.1487    0.0000 C   0  0  0  0  0  0  0  0  0  0  0  0
    8.8426   -1.4856    0.0000 C   0  0  0  0  0  0  0  0  0  0  0  0
  1  3  1  0
  1  5  1  0
  1  8  1  0
  1 21  1  1
  2  6  1  0
  2  7  1  0
  2 15  1  0
  2 24  1  1
  3 11  1  0
  3 12  1  0
  3 20  1  6
  4  5  1  0
  4 14  1  6
  4  6  1  0
  5 13  1  1
  6  9  1  1
  7 10  2  0
  7 16  1  0
  8  9  1  0
  9 23  1  1
 10 17  1  0
 11 18  2  0
 11 25  1  0
 12 13  1  0
 14 16  1  0
 15 22  1  0
 17 22  1  0
 17 19  2  0
 20 27  1  0
 25 26  1  0
 27 28  1  0
 27 29  2  0
 28 30  1  0
 30 31  1  0
 31 32  1  0
M  END
>  <Formula>  (706) 
C26H38O6

>  <FW>  (706) 
446.5763

>  <DSSTox_CID>  (706) 
25633

>  <NR-AR>  (706) 
1

>  <NR-AR-LBD>  (706) 
1

>  <NR-ER>  (706) 
0

>  <NR-PPAR-gamma>  (706) 
0

>  <NR-AhR>  (706) 
0

>  <SR-ATAD5>  (706) 
0

>  <SR-MMP>  (706) 
0

>  <SR-p53>  (706) 
0

$$$$
NCGC00016433-01
     RDKit          2D

 30 33  0  0  1  0  0  0  0  0999 V2000
    4.3295   -2.3208    0.0000 C   0  0  0  0  0  0  0  0  0  0  0  0
    2.8890   -3.1451    0.0000 C   0  0  0  0  0  0  0  0  0  0  0  0
    2.1848   -3.5612    0.0000 C   0  0  0  0  0  0  0  0  0  0  0  0
    3.6012   -3.5612    0.0000 C   0  0  0  0  0  0  0  0  0  0  0  0
    5.1138   -2.0647    0.0000 C   0  0  0  0  0  0  0  0  0  0  0  0
    4.3295   -3.1451    0.0000 C   0  0  0  0  0  0  0  0  0  0  0  0
    2.1848   -4.4015    0.0000 C   0  0  0  0  0  0  0  0  0  0  0  0
    2.8890   -2.3208    0.0000 C   0  0  0  0  0  0  0  0  0  0  0  0
    3.6012   -1.9127    0.0000 C   0  0  0  0  0  0  0  0  0  0  0  0
    1.4565   -3.1451    0.0000 C   0  0  0  0  0  0  0  0  0  0  0  0
    5.1138   -1.2244    0.0000 C   0  0  0  0  0  0  0  0  0  0  0  0
    1.4565   -4.8097    0.0000 C   0  0  0  0  0  0  0  0  0  0  0  0
    5.6100   -2.7369    0.0000 C   0  0  0  0  0  0  0  0  0  0  0  0
    5.1138   -3.3932    0.0000 C   0  0  0  0  0  0  0  0  0  0  0  0
    3.6012   -4.4015    0.0000 C   0  0  0  0  0  0  0  0  0  0  0  0
    0.7362   -3.5612    0.0000 C   0  0  0  0  0  0  0  0  0  0  0  0
    0.7362   -4.4015    0.0000 C   0  0  0  0  0  0  0  0  0  0  0  0
    2.8890   -4.8097    0.0000 C   0  0  0  0  0  0  0  0  0  0  0  0
    7.2745   -0.8243    0.0000 C   0  0  0  0  0  0  0  0  0  0  0  0
    2.8890   -3.9454    0.0000 F   0  0  0  0  0  0  0  0  0  0  0  0
    5.8420   -0.8083    0.0000 C   0  0  0  0  0  0  0  0  0  0  0  0
    4.3855   -0.8083    0.0000 O   0  0  0  0  0  0  0  0  0  0  0  0
    6.5463   -1.2244    0.0000 O   0  0  0  0  0  0  0  0  0  0  0  0
    7.2745    0.0000    0.0000 O   0  0  0  0  0  0  0  0  0  0  0  0
    0.0000   -4.8257    0.0000 O   0  0  0  0  0  0  0  0  0  0  0  0
    5.9540   -2.0887    0.0000 O   0  0  0  0  0  0  0  0  0  0  0  0
    4.3295   -1.5285    0.0000 C   0  0  0  0  0  0  0  0  0  0  0  0
    2.1607   -1.8886    0.0000 O   0  0  0  0  0  0  0  0  0  0  0  0
    2.1848   -2.7369    0.0000 C   0  0  0  0  0  0  0  0  0  0  0  0
    8.0028   -1.2004    0.0000 C   0  0  0  0  0  0  0  0  0  0  0  0
  1  5  1  0
  1  6  1  0
  1  9  1  0
  1 27  1  1
  2  8  1  0
  2  3  1  0
  2 20  1  6
  2  4  1  0
  3  7  1  0
  3 10  1  0
  3 29  1  1
  4  6  1  0
  4 15  1  6
  5 11  1  0
  5 13  1  0
  5 26  1  6
  6 14  1  1
  7 12  2  0
  7 18  1  0
  8  9  1  0
  8 28  1  1
 10 16  2  0
 11 21  1  0
 11 22  2  0
 12 17  1  0
 13 14  1  0
 15 18  1  0
 16 17  1  0
 17 25  2  0
 19 23  1  0
 19 24  2  0
 19 30  1  0
 21 23  1  0
M  END
>  <Formula>  (707) 
C23H29FO6

>  <FW>  (707) 
420.4712

>  <DSSTox_CID>  (707) 
25306

>  <NR-AR>  (707) 
1

>  <NR-AR-LBD>  (707) 
1

>  <NR-ER>  (707) 
0

>  <NR-ER-LBD>  (707) 
0

>  <NR-PPAR-gamma>  (707) 
0

>  <SR-ATAD5>  (707) 
0

>  <SR-MMP>  (707) 
0

>  <SR-p53>  (707) 
0

$$$$
NCGC00168749-01
     RDKit          2D

 36 39  0  0  1  0  0  0  0  0999 V2000
    2.1660   -2.8584    0.0000 C   0  0  0  0  0  0  0  0  0  0  0  0
    4.2836   -1.6346    0.0000 C   0  0  0  0  0  0  0  0  0  0  0  0
    2.8665   -2.4720    0.0000 C   0  0  0  0  0  0  0  0  0  0  0  0
    5.0727   -1.3850    0.0000 C   0  0  0  0  0  0  0  0  0  0  0  0
    2.1660   -3.6958    0.0000 C   0  0  0  0  0  0  0  0  0  0  0  0
    3.5912   -2.8584    0.0000 C   0  0  0  0  0  0  0  0  0  0  0  0
    4.2836   -2.4720    0.0000 C   0  0  0  0  0  0  0  0  0  0  0  0
    2.8665   -1.6426    0.0000 C   0  0  0  0  0  0  0  0  0  0  0  0
    1.4332   -2.4720    0.0000 C   0  0  0  0  0  0  0  0  0  0  0  0
    3.5751   -1.2239    0.0000 C   0  0  0  0  0  0  0  0  0  0  0  0
    3.5912   -3.6958    0.0000 C   0  0  0  0  0  0  0  0  0  0  0  0
    2.8665   -4.1307    0.0000 C   0  0  0  0  0  0  0  0  0  0  0  0
    1.4332   -4.1307    0.0000 C   0  0  0  0  0  0  0  0  0  0  0  0
    5.2901   -0.5878    0.0000 C   0  0  0  0  0  0  0  0  0  0  0  0
    5.5397   -2.0452    0.0000 C   0  0  0  0  0  0  0  0  0  0  0  0
    5.7732   -1.3850    0.0000 O   0  0  0  0  0  0  0  0  0  0  0  0
    5.0727   -2.7054    0.0000 C   0  0  0  0  0  0  0  0  0  0  0  0
    0.7166   -2.8584    0.0000 C   0  0  0  0  0  0  0  0  0  0  0  0
    0.7166   -3.6958    0.0000 C   0  0  0  0  0  0  0  0  0  0  0  0
    6.2000   -2.1176    0.0000 C   0  0  0  0  0  0  0  0  0  0  0  0
    7.4480   -0.7891    0.0000 C   0  0  0  0  0  0  0  0  0  0  0  0
    2.8584   -3.3013    0.0000 F   0  0  0  0  0  0  0  0  0  0  0  0
    6.0792   -0.4026    0.0000 C   0  0  0  0  0  0  0  0  0  0  0  0
    4.7104    0.0000    0.0000 O   0  0  0  0  0  0  0  0  0  0  0  0
    6.6429   -0.9984    0.0000 O   0  0  0  0  0  0  0  0  0  0  0  0
    7.0374   -2.1176    0.0000 O   0  0  0  0  0  0  0  0  0  0  0  0
    8.0520   -1.3447    0.0000 O   0  0  0  0  0  0  0  0  0  0  0  0
    0.0000   -4.1307    0.0000 O   0  0  0  0  0  0  0  0  0  0  0  0
    2.1660   -2.0452    0.0000 C   0  0  0  0  0  0  0  0  0  0  0  0
    4.2836   -0.8374    0.0000 C   0  0  0  0  0  0  0  0  0  0  0  0
    2.1418   -1.2159    0.0000 O   0  0  0  0  0  0  0  0  0  0  0  0
    2.8826   -4.9439    0.0000 F   0  0  0  0  0  0  0  0  0  0  0  0
    5.7813   -2.7779    0.0000 C   0  0  0  0  0  0  0  0  0  0  0  0
    7.7138   -0.0080    0.0000 C   0  0  0  0  0  0  0  0  0  0  0  0
    6.2000   -3.5187    0.0000 C   0  0  0  0  0  0  0  0  0  0  0  0
    5.7813   -4.2353    0.0000 C   0  0  0  0  0  0  0  0  0  0  0  0
  1  3  1  0
  1  5  1  0
  1  9  1  0
  1 29  1  1
  2 10  1  0
  2  4  1  0
  2 30  1  1
  2  7  1  0
  3  6  1  0
  3  8  1  0
  3 22  1  6
  4 14  1  0
  4 16  1  6
  4 15  1  0
  5 12  1  0
  5 13  2  0
  6  7  1  0
  6 11  1  6
  7 17  1  1
  8 10  1  0
  8 31  1  1
  9 18  2  0
 11 12  1  0
 12 32  1  6
 13 19  1  0
 14 23  1  0
 14 24  2  0
 15 17  1  0
 16 20  1  0
 18 19  1  0
 19 28  2  0
 20 26  2  0
 20 33  1  0
 21 25  1  0
 21 27  2  0
 21 34  1  0
 23 25  1  0
 33 35  1  0
 35 36  1  0
M  END
>  <Formula>  (708) 
C27H34F2O7

>  <FW>  (708) 
508.5515

>  <DSSTox_CID>  (708) 
26773

>  <NR-AR>  (708) 
1

>  <NR-AR-LBD>  (708) 
1

>  <NR-ER>  (708) 
0

>  <NR-ER-LBD>  (708) 
0

>  <NR-PPAR-gamma>  (708) 
0

>  <NR-AhR>  (708) 
0

>  <SR-ATAD5>  (708) 
0

>  <SR-p53>  (708) 
0

$$$$
NCGC00256415-01
     RDKit          2D

 31 35  0  0  1  0  0  0  0  0999 V2000
    5.1538   -2.1009    0.0000 C   0  0  0  0  0  0  0  0  0  0  0  0
    4.3477   -2.3582    0.0000 C   0  0  0  0  0  0  0  0  0  0  0  0
    5.6426   -2.7441    0.0000 C   0  0  0  0  0  0  0  0  0  0  0  0
    5.6426   -1.4578    0.0000 O   0  0  0  0  0  0  0  0  0  0  0  0
    4.9223   -1.3377    0.0000 C   0  0  0  0  0  0  0  0  0  0  0  0
    4.3477   -3.1386    0.0000 C   0  0  0  0  0  0  0  0  0  0  0  0
    3.6360   -1.9638    0.0000 C   0  0  0  0  0  0  0  0  0  0  0  0
    4.3820   -1.7408    0.0000 C   0  0  0  0  0  0  0  0  0  0  0  0
    5.1538   -3.3872    0.0000 C   0  0  0  0  0  0  0  0  0  0  0  0
    6.4401   -2.4954    0.0000 O   0  0  0  0  0  0  0  0  0  0  0  0
    6.4401   -1.7065    0.0000 C   0  0  0  0  0  0  0  0  0  0  0  0
    5.5053   -0.7547    0.0000 C   0  0  0  0  0  0  0  0  0  0  0  0
    4.1247   -1.1405    0.0000 O   0  0  0  0  0  0  0  0  0  0  0  0
    3.6360   -3.5502    0.0000 C   0  0  0  0  0  0  0  0  0  0  0  0
    2.8985   -2.3582    0.0000 C   0  0  0  0  0  0  0  0  0  0  0  0
    7.1175   -1.2348    0.0000 C   0  0  0  0  0  0  0  0  0  0  0  0
    5.2738    0.0000    0.0000 O   0  0  0  0  0  0  0  0  0  0  0  0
    2.8985   -3.1386    0.0000 C   0  0  0  0  0  0  0  0  0  0  0  0
    3.6360   -4.3391    0.0000 C   0  0  0  0  0  0  0  0  0  0  0  0
    2.1781   -1.9638    0.0000 O   0  0  0  0  0  0  0  0  0  0  0  0
    7.8893   -1.5607    0.0000 C   0  0  0  0  0  0  0  0  0  0  0  0
    2.1781   -3.5502    0.0000 C   0  0  0  0  0  0  0  0  0  0  0  0
    2.8985   -4.7421    0.0000 C   0  0  0  0  0  0  0  0  0  0  0  0
    8.5753   -1.0891    0.0000 C   0  0  0  0  0  0  0  0  0  0  0  0
    2.1781   -4.3391    0.0000 C   0  0  0  0  0  0  0  0  0  0  0  0
    1.4492   -3.1386    0.0000 C   0  0  0  0  0  0  0  0  0  0  0  0
    2.1781   -2.7441    0.0000 C   0  0  0  0  0  0  0  0  0  0  0  0
    1.4492   -4.7421    0.0000 C   0  0  0  0  0  0  0  0  0  0  0  0
    0.7203   -3.5502    0.0000 C   0  0  0  0  0  0  0  0  0  0  0  0
    0.7203   -4.3391    0.0000 C   0  0  0  0  0  0  0  0  0  0  0  0
    0.0000   -4.7421    0.0000 O   0  0  0  0  0  0  0  0  0  0  0  0
  1  2  1  0
  1  3  1  0
  1  4  1  0
  1  5  1  1
  2  6  1  0
  2  7  1  0
  2  8  1  1
  3  9  1  6
  3 10  1  0
  4 11  1  0
  5 12  1  0
  5 13  2  0
  6 14  1  0
  6  9  1  1
  7 15  1  0
 10 11  1  0
 11 16  1  6
 12 17  1  0
 14 18  1  0
 14 19  1  6
 15 20  1  1
 18 15  1  1
 16 21  1  0
 18 22  1  0
 19 23  1  0
 21 24  1  0
 22 25  1  0
 22 26  1  0
 22 27  1  1
 23 25  1  0
 25 28  2  0
 26 29  2  0
 28 30  1  0
 29 30  1  0
 30 31  2  0
M  END
>  <Formula>  (709) 
C25H34O6

>  <FW>  (709) 
430.5339

>  <DSSTox_CID>  (709) 
202

>  <NR-AR>  (709) 
1

>  <NR-AR-LBD>  (709) 
1

>  <NR-ER-LBD>  (709) 
0

>  <SR-ARE>  (709) 
1

>  <SR-ATAD5>  (709) 
0

>  <SR-HSE>  (709) 
0

>  <SR-MMP>  (709) 
0

>  <SR-p53>  (709) 
0

$$$$
NCGC00016824-01
     RDKit          2D

 34 37  0  0  1  0  0  0  0  0999 V2000
    2.1620   -3.5426    0.0000 C   0  0  0  0  0  0  0  0  0  0  0  0
    2.8914   -3.1258    0.0000 C   0  0  0  0  0  0  0  0  0  0  0  0
    4.3153   -2.3009    0.0000 C   0  0  0  0  0  0  0  0  0  0  0  0
    2.1620   -4.3674    0.0000 C   0  0  0  0  0  0  0  0  0  0  0  0
    4.3153   -3.1258    0.0000 C   0  0  0  0  0  0  0  0  0  0  0  0
    3.6033   -3.5426    0.0000 C   0  0  0  0  0  0  0  0  0  0  0  0
    2.8914   -2.3009    0.0000 C   0  0  0  0  0  0  0  0  0  0  0  0
    1.4500   -3.1258    0.0000 C   0  0  0  0  0  0  0  0  0  0  0  0
    5.0794   -2.0405    0.0000 C   0  0  0  0  0  0  0  0  0  0  0  0
    3.6033   -1.8754    0.0000 C   0  0  0  0  0  0  0  0  0  0  0  0
    5.0794   -3.3602    0.0000 C   0  0  0  0  0  0  0  0  0  0  0  0
    5.5743   -2.7003    0.0000 C   0  0  0  0  0  0  0  0  0  0  0  0
    3.6033   -4.3674    0.0000 C   0  0  0  0  0  0  0  0  0  0  0  0
    2.8914   -4.7842    0.0000 C   0  0  0  0  0  0  0  0  0  0  0  0
    1.4500   -4.7842    0.0000 C   0  0  0  0  0  0  0  0  0  0  0  0
    0.7207   -3.5426    0.0000 C   0  0  0  0  0  0  0  0  0  0  0  0
    0.7207   -4.3674    0.0000 C   0  0  0  0  0  0  0  0  0  0  0  0
    5.0794   -1.2850    0.0000 C   0  0  0  0  0  0  0  0  0  0  0  0
    2.8914   -3.9419    0.0000 Cl  0  0  0  0  0  0  0  0  0  0  0  0
    4.4542   -0.7380    0.0000 O   0  0  0  0  0  0  0  0  0  0  0  0
    0.0000   -4.7928    0.0000 O   0  0  0  0  0  0  0  0  0  0  0  0
    2.1620   -2.6048    0.0000 C   0  0  0  0  0  0  0  0  0  0  0  0
    4.3153   -1.5195    0.0000 C   0  0  0  0  0  0  0  0  0  0  0  0
    2.1620   -1.8581    0.0000 O   0  0  0  0  0  0  0  0  0  0  0  0
    2.8914   -5.5135    0.0000 F   0  0  0  0  0  0  0  0  0  0  0  0
    6.4166   -2.7003    0.0000 C   0  0  0  0  0  0  0  0  0  0  0  0
    6.5033   -1.2590    0.0000 O   0  0  0  0  0  0  0  0  0  0  0  0
    5.8088   -0.8335    0.0000 C   0  0  0  0  0  0  0  0  0  0  0  0
    7.2414   -0.8335    0.0000 C   0  0  0  0  0  0  0  0  0  0  0  0
    7.9620   -1.2590    0.0000 C   0  0  0  0  0  0  0  0  0  0  0  0
    7.2414    0.0000    0.0000 O   0  0  0  0  0  0  0  0  0  0  0  0
    8.3788   -0.5297    0.0000 C   0  0  0  0  0  0  0  0  0  0  0  0
    7.5366   -1.9970    0.0000 C   0  0  0  0  0  0  0  0  0  0  0  0
    8.6827   -1.6758    0.0000 C   0  0  0  0  0  0  0  0  0  0  0  0
  1  2  1  0
  1  4  1  0
  1  8  1  0
  1 22  1  1
  2  6  1  0
  2  7  1  0
  2 19  1  6
  3 10  1  0
  3  9  1  0
  3 23  1  1
  3  5  1  0
  4 14  1  0
  4 15  2  0
  5  6  1  0
  5 11  1  1
  6 13  1  6
  7 10  1  0
  7 24  1  1
  8 16  2  0
  9 18  1  1
  9 12  1  0
 11 12  1  0
 12 26  1  6
 13 14  1  0
 14 25  1  6
 15 17  1  0
 16 17  1  0
 17 21  2  0
 18 20  2  0
 18 28  1  0
 27 28  1  0
 27 29  1  0
 29 30  1  0
 29 31  2  0
 30 32  1  0
 30 33  1  0
 30 34  1  0
M  END
>  <Formula>  (710) 
C27H36ClFO5

>  <FW>  (710) 
495.0231

>  <DSSTox_CID>  (710) 
25460

>  <NR-AR>  (710) 
1

>  <NR-AR-LBD>  (710) 
1

>  <NR-ER>  (710) 
0

>  <NR-ER-LBD>  (710) 
0

>  <NR-PPAR-gamma>  (710) 
0

>  <NR-AhR>  (710) 
0

>  <SR-ATAD5>  (710) 
0

>  <SR-MMP>  (710) 
0

>  <SR-p53>  (710) 
0

$$$$
NCGC00159503-02
     RDKit          2D

 30 33  0  0  1  0  0  0  0  0999 V2000
    2.1858   -3.3766    0.0000 C   0  0  0  0  0  0  0  0  0  0  0  0
    4.3324   -2.1153    0.0000 C   0  0  0  0  0  0  0  0  0  0  0  0
    2.1858   -4.1914    0.0000 C   0  0  0  0  0  0  0  0  0  0  0  0
    5.1237   -1.8724    0.0000 C   0  0  0  0  0  0  0  0  0  0  0  0
    2.9066   -2.9614    0.0000 C   0  0  0  0  0  0  0  0  0  0  0  0
    3.6194   -3.3766    0.0000 C   0  0  0  0  0  0  0  0  0  0  0  0
    4.3324   -2.9692    0.0000 C   0  0  0  0  0  0  0  0  0  0  0  0
    1.4572   -2.9614    0.0000 C   0  0  0  0  0  0  0  0  0  0  0  0
    3.6194   -1.7235    0.0000 C   0  0  0  0  0  0  0  0  0  0  0  0
    2.9066   -2.1153    0.0000 C   0  0  0  0  0  0  0  0  0  0  0  0
    3.6194   -4.1757    0.0000 C   0  0  0  0  0  0  0  0  0  0  0  0
    1.4572   -4.5910    0.0000 C   0  0  0  0  0  0  0  0  0  0  0  0
    2.9066   -4.5910    0.0000 C   0  0  0  0  0  0  0  0  0  0  0  0
    5.1315   -1.0498    0.0000 C   0  0  0  0  0  0  0  0  0  0  0  0
    5.5859   -2.5305    0.0000 C   0  0  0  0  0  0  0  0  0  0  0  0
    5.1237   -3.2278    0.0000 C   0  0  0  0  0  0  0  0  0  0  0  0
    0.7443   -3.3766    0.0000 C   0  0  0  0  0  0  0  0  0  0  0  0
    0.7443   -4.1757    0.0000 C   0  0  0  0  0  0  0  0  0  0  0  0
    7.2232   -0.7521    0.0000 C   0  0  0  0  0  0  0  0  0  0  0  0
    5.8523   -0.6424    0.0000 C   0  0  0  0  0  0  0  0  0  0  0  0
    4.4186   -0.6032    0.0000 O   0  0  0  0  0  0  0  0  0  0  0  0
    6.5417   -1.0890    0.0000 O   0  0  0  0  0  0  0  0  0  0  0  0
    7.2232    0.0000    0.0000 O   0  0  0  0  0  0  0  0  0  0  0  0
    0.0000   -4.5831    0.0000 O   0  0  0  0  0  0  0  0  0  0  0  0
    5.9541   -1.8803    0.0000 O   0  0  0  0  0  0  0  0  0  0  0  0
    2.1858   -2.5226    0.0000 C   0  0  0  0  0  0  0  0  0  0  0  0
    4.3324   -1.3083    0.0000 C   0  0  0  0  0  0  0  0  0  0  0  0
    2.1701   -1.7157    0.0000 O   0  0  0  0  0  0  0  0  0  0  0  0
    2.9066   -5.4214    0.0000 C   0  0  0  0  0  0  0  0  0  0  0  0
    7.8344   -1.1517    0.0000 C   0  0  0  0  0  0  0  0  0  0  0  0
  1  3  1  0
  1  5  1  0
  1  8  1  0
  1 26  1  1
  2  9  1  0
  2  4  1  0
  2 27  1  1
  2  7  1  0
  3 12  2  0
  3 13  1  0
  4 14  1  0
  4 25  1  6
  4 15  1  0
  5  6  1  0
  5 10  1  1
  6  7  1  0
  6 11  1  6
  7 16  1  1
  8 17  2  0
  9 10  1  0
 10 28  1  1
 11 13  1  0
 12 18  1  0
 13 29  1  6
 14 20  1  0
 14 21  2  0
 15 16  1  0
 17 18  1  0
 18 24  2  0
 19 22  1  0
 19 23  2  0
 19 30  1  0
 20 22  1  0
M  END
>  <Formula>  (711) 
C24H32O6

>  <FW>  (711) 
416.5073

>  <DSSTox_CID>  (711) 
3302

>  <NR-AR>  (711) 
1

>  <NR-AR-LBD>  (711) 
1

>  <NR-ER>  (711) 
1

>  <NR-ER-LBD>  (711) 
0

>  <NR-PPAR-gamma>  (711) 
0

>  <NR-AhR>  (711) 
0

>  <SR-ATAD5>  (711) 
0

>  <SR-MMP>  (711) 
0

>  <SR-p53>  (711) 
0

$$$$
NCGC00164402-01
     RDKit          2D

 28 31  0  0  1  0  0  0  0  0999 V2000
    4.3041   -2.0593    0.0000 C   0  0  0  0  0  0  0  0  0  0  0  0
    2.8779   -2.8907    0.0000 C   0  0  0  0  0  0  0  0  0  0  0  0
    2.1617   -3.3000    0.0000 C   0  0  0  0  0  0  0  0  0  0  0  0
    4.3041   -2.8907    0.0000 C   0  0  0  0  0  0  0  0  0  0  0  0
    3.5878   -3.3000    0.0000 C   0  0  0  0  0  0  0  0  0  0  0  0
    5.0908   -1.8035    0.0000 C   0  0  0  0  0  0  0  0  0  0  0  0
    2.1617   -4.1314    0.0000 C   0  0  0  0  0  0  0  0  0  0  0  0
    2.8779   -2.0593    0.0000 C   0  0  0  0  0  0  0  0  0  0  0  0
    3.5878   -1.6564    0.0000 C   0  0  0  0  0  0  0  0  0  0  0  0
    5.5768   -2.4750    0.0000 C   0  0  0  0  0  0  0  0  0  0  0  0
    1.4581   -2.8907    0.0000 C   0  0  0  0  0  0  0  0  0  0  0  0
    5.0908   -3.1338    0.0000 C   0  0  0  0  0  0  0  0  0  0  0  0
    1.4581   -4.5471    0.0000 C   0  0  0  0  0  0  0  0  0  0  0  0
    5.3082   -1.0105    0.0000 C   0  0  0  0  0  0  0  0  0  0  0  0
    3.5878   -4.1314    0.0000 C   0  0  0  0  0  0  0  0  0  0  0  0
    0.7418   -3.3000    0.0000 C   0  0  0  0  0  0  0  0  0  0  0  0
    0.7418   -4.1314    0.0000 C   0  0  0  0  0  0  0  0  0  0  0  0
    2.8779   -4.5471    0.0000 C   0  0  0  0  0  0  0  0  0  0  0  0
    2.8651   -3.5750    0.0000 Cl  0  0  0  0  0  0  0  0  0  0  0  0
    4.7198   -0.4157    0.0000 O   0  0  0  0  0  0  0  0  0  0  0  0
    0.0000   -4.5471    0.0000 O   0  0  0  0  0  0  0  0  0  0  0  0
    5.9093   -1.8035    0.0000 O   0  0  0  0  0  0  0  0  0  0  0  0
    4.3041   -1.2279    0.0000 C   0  0  0  0  0  0  0  0  0  0  0  0
    2.1489   -1.6308    0.0000 O   0  0  0  0  0  0  0  0  0  0  0  0
    2.1617   -2.4750    0.0000 C   0  0  0  0  0  0  0  0  0  0  0  0
    6.3954   -2.4750    0.0000 C   0  0  0  0  0  0  0  0  0  0  0  0
    6.0948   -0.7994    0.0000 C   0  0  0  0  0  0  0  0  0  0  0  0
    6.3123    0.0000    0.0000 O   0  0  0  0  0  0  0  0  0  0  0  0
  1  4  1  0
  1  6  1  0
  1  9  1  0
  1 23  1  1
  2  8  1  0
  2  3  1  0
  2 19  1  6
  2  5  1  0
  3  7  1  0
  3 11  1  0
  3 25  1  1
  4  5  1  0
  4 12  1  1
  5 15  1  6
  6 10  1  0
  6 14  1  0
  6 22  1  6
  7 13  2  0
  7 18  1  0
  8  9  1  0
  8 24  1  1
 10 26  1  1
 10 12  1  0
 11 16  2  0
 13 17  1  0
 14 20  2  0
 14 27  1  0
 15 18  1  0
 16 17  1  0
 17 21  2  0
 27 28  1  0
M  END
>  <Formula>  (712) 
C22H29ClO5

>  <FW>  (712) 
408.9157

>  <DSSTox_CID>  (712) 
20750

>  <NR-AR>  (712) 
1

>  <NR-AR-LBD>  (712) 
1

>  <NR-ER>  (712) 
0

>  <NR-ER-LBD>  (712) 
0

>  <NR-PPAR-gamma>  (712) 
0

>  <NR-AhR>  (712) 
0

>  <SR-ATAD5>  (712) 
0

>  <SR-MMP>  (712) 
0

>  <SR-p53>  (712) 
0

$$$$
NCGC00164401-01
     RDKit          2D

 28 31  0  0  1  0  0  0  0  0999 V2000
    4.3068   -1.6544    0.0000 C   0  0  0  0  0  0  0  0  0  0  0  0
    2.8802   -2.4850    0.0000 C   0  0  0  0  0  0  0  0  0  0  0  0
    2.1635   -2.8935    0.0000 C   0  0  0  0  0  0  0  0  0  0  0  0
    4.3068   -2.4850    0.0000 C   0  0  0  0  0  0  0  0  0  0  0  0
    3.5901   -2.8935    0.0000 C   0  0  0  0  0  0  0  0  0  0  0  0
    5.0972   -1.3932    0.0000 C   0  0  0  0  0  0  0  0  0  0  0  0
    2.1635   -3.7241    0.0000 C   0  0  0  0  0  0  0  0  0  0  0  0
    2.8802   -1.6544    0.0000 C   0  0  0  0  0  0  0  0  0  0  0  0
    3.5901   -1.2459    0.0000 C   0  0  0  0  0  0  0  0  0  0  0  0
    5.5862   -2.0697    0.0000 C   0  0  0  0  0  0  0  0  0  0  0  0
    1.4535   -2.4850    0.0000 C   0  0  0  0  0  0  0  0  0  0  0  0
    5.0972   -2.7261    0.0000 C   0  0  0  0  0  0  0  0  0  0  0  0
    1.4535   -4.1394    0.0000 C   0  0  0  0  0  0  0  0  0  0  0  0
    5.3182   -0.5961    0.0000 C   0  0  0  0  0  0  0  0  0  0  0  0
    3.5901   -3.7241    0.0000 C   0  0  0  0  0  0  0  0  0  0  0  0
    0.7368   -2.8935    0.0000 C   0  0  0  0  0  0  0  0  0  0  0  0
    0.7368   -3.7241    0.0000 C   0  0  0  0  0  0  0  0  0  0  0  0
    2.8802   -4.1394    0.0000 C   0  0  0  0  0  0  0  0  0  0  0  0
    2.8735   -3.1749    0.0000 F   0  0  0  0  0  0  0  0  0  0  0  0
    4.7355    0.0000    0.0000 O   0  0  0  0  0  0  0  0  0  0  0  0
    0.0000   -4.1461    0.0000 O   0  0  0  0  0  0  0  0  0  0  0  0
    5.9211   -1.3932    0.0000 O   0  0  0  0  0  0  0  0  0  0  0  0
    4.3068   -0.8105    0.0000 C   0  0  0  0  0  0  0  0  0  0  0  0
    2.1500   -1.2257    0.0000 O   0  0  0  0  0  0  0  0  0  0  0  0
    2.1635   -2.0697    0.0000 C   0  0  0  0  0  0  0  0  0  0  0  0
    6.4100   -2.0630    0.0000 C   0  0  0  0  0  0  0  0  0  0  0  0
    6.1153   -0.3885    0.0000 C   0  0  0  0  0  0  0  0  0  0  0  0
    6.6980   -0.9846    0.0000 O   0  0  0  0  0  0  0  0  0  0  0  0
  1  4  1  0
  1  6  1  0
  1  9  1  0
  1 23  1  1
  2  8  1  0
  2  3  1  0
  2 19  1  6
  2  5  1  0
  3  7  1  0
  3 11  1  0
  3 25  1  1
  4  5  1  0
  4 12  1  1
  5 15  1  6
  6 10  1  0
  6 14  1  0
  6 22  1  6
  7 13  2  0
  7 18  1  0
  8  9  1  0
  8 24  1  1
 10 26  1  1
 10 12  1  0
 11 16  2  0
 13 17  1  0
 14 20  2  0
 14 27  1  0
 15 18  1  0
 16 17  1  0
 17 21  2  0
 27 28  1  0
M  END
>  <Formula>  (713) 
C22H29FO5

>  <FW>  (713) 
392.4611

>  <DSSTox_CID>  (713) 
2667

>  <NR-AR>  (713) 
1

>  <NR-AR-LBD>  (713) 
1

>  <NR-ER>  (713) 
0

>  <NR-ER-LBD>  (713) 
0

>  <NR-PPAR-gamma>  (713) 
0

>  <NR-AhR>  (713) 
0

>  <SR-ATAD5>  (713) 
0

>  <SR-MMP>  (713) 
0

>  <SR-p53>  (713) 
0

$$$$
NCGC00183028-01
     RDKit          2D

 27 30  0  0  1  0  0  0  0  0999 V2000
    4.3204   -1.6210    0.0000 C   0  0  0  0  0  0  0  0  0  0  0  0
    2.8803   -2.4449    0.0000 C   0  0  0  0  0  0  0  0  0  0  0  0
    2.1636   -2.8534    0.0000 C   0  0  0  0  0  0  0  0  0  0  0  0
    3.5970   -2.8601    0.0000 C   0  0  0  0  0  0  0  0  0  0  0  0
    5.1107   -1.3664    0.0000 C   0  0  0  0  0  0  0  0  0  0  0  0
    4.3204   -2.4516    0.0000 C   0  0  0  0  0  0  0  0  0  0  0  0
    2.1636   -3.6840    0.0000 C   0  0  0  0  0  0  0  0  0  0  0  0
    2.8803   -1.6210    0.0000 C   0  0  0  0  0  0  0  0  0  0  0  0
    3.5970   -1.2124    0.0000 C   0  0  0  0  0  0  0  0  0  0  0  0
    1.4535   -4.0926    0.0000 C   0  0  0  0  0  0  0  0  0  0  0  0
    5.3385   -0.5827    0.0000 C   0  0  0  0  0  0  0  0  0  0  0  0
    5.5863   -2.0161    0.0000 C   0  0  0  0  0  0  0  0  0  0  0  0
    5.1107   -2.6994    0.0000 C   0  0  0  0  0  0  0  0  0  0  0  0
    3.5970   -3.6840    0.0000 C   0  0  0  0  0  0  0  0  0  0  0  0
    1.4535   -2.4449    0.0000 C   0  0  0  0  0  0  0  0  0  0  0  0
    2.8803   -4.0926    0.0000 C   0  0  0  0  0  0  0  0  0  0  0  0
    0.7234   -3.6773    0.0000 C   0  0  0  0  0  0  0  0  0  0  0  0
    2.8601   -3.2084    0.0000 F   0  0  0  0  0  0  0  0  0  0  0  0
    4.7624    0.0000    0.0000 O   0  0  0  0  0  0  0  0  0  0  0  0
    0.0000   -4.0859    0.0000 O   0  0  0  0  0  0  0  0  0  0  0  0
    5.9213   -1.4602    0.0000 O   0  0  0  0  0  0  0  0  0  0  0  0
    4.3204   -0.7904    0.0000 C   0  0  0  0  0  0  0  0  0  0  0  0
    0.7234   -2.8601    0.0000 C   0  0  0  0  0  0  0  0  0  0  0  0
    2.1434   -1.1990    0.0000 O   0  0  0  0  0  0  0  0  0  0  0  0
    2.1636   -2.0161    0.0000 C   0  0  0  0  0  0  0  0  0  0  0  0
    6.1088   -0.3751    0.0000 C   0  0  0  0  0  0  0  0  0  0  0  0
    6.6983   -0.9646    0.0000 O   0  0  0  0  0  0  0  0  0  0  0  0
  1  5  1  0
  1  6  1  0
  1  9  1  0
  1 22  1  1
  2  8  1  0
  2  3  1  0
  2 18  1  6
  2  4  1  0
  3  7  1  0
  3 15  1  0
  3 25  1  1
  4  6  1  0
  4 14  1  6
  5 11  1  0
  5 12  1  0
  5 21  1  6
  6 13  1  1
  7 10  2  0
  7 16  1  0
  8  9  1  0
  8 24  1  1
 10 17  1  0
 11 19  2  0
 11 26  1  0
 12 13  1  0
 14 16  1  0
 15 23  1  0
 17 23  1  0
 17 20  2  0
 26 27  1  0
M  END
>  <Formula>  (714) 
C21H29FO5

>  <FW>  (714) 
380.4504

>  <DSSTox_CID>  (714) 
3061

>  <NR-AR>  (714) 
1

>  <NR-AR-LBD>  (714) 
1

>  <NR-ER>  (714) 
0

>  <NR-ER-LBD>  (714) 
0

>  <NR-PPAR-gamma>  (714) 
0

>  <NR-AhR>  (714) 
0

>  <SR-ATAD5>  (714) 
0

>  <SR-MMP>  (714) 
0

>  <SR-p53>  (714) 
0

$$$$
NCGC00095078-01
     RDKit          2D

 32 35  0  0  1  0  0  0  0  0999 V2000
    4.2932   -1.4898    0.0000 C   0  0  0  0  0  0  0  0  0  0  0  0
    2.8755   -2.2988    0.0000 C   0  0  0  0  0  0  0  0  0  0  0  0
    5.0622   -1.2575    0.0000 C   0  0  0  0  0  0  0  0  0  0  0  0
    2.1547   -2.7153    0.0000 C   0  0  0  0  0  0  0  0  0  0  0  0
    4.2932   -2.2988    0.0000 C   0  0  0  0  0  0  0  0  0  0  0  0
    3.5884   -2.7153    0.0000 C   0  0  0  0  0  0  0  0  0  0  0  0
    2.1547   -3.5403    0.0000 C   0  0  0  0  0  0  0  0  0  0  0  0
    2.8755   -1.4898    0.0000 C   0  0  0  0  0  0  0  0  0  0  0  0
    3.5884   -1.0733    0.0000 C   0  0  0  0  0  0  0  0  0  0  0  0
    5.5428   -1.8983    0.0000 C   0  0  0  0  0  0  0  0  0  0  0  0
    1.4498   -2.2988    0.0000 C   0  0  0  0  0  0  0  0  0  0  0  0
    5.0622   -2.5551    0.0000 C   0  0  0  0  0  0  0  0  0  0  0  0
    1.4498   -3.9488    0.0000 C   0  0  0  0  0  0  0  0  0  0  0  0
    5.0622   -0.4165    0.0000 C   0  0  0  0  0  0  0  0  0  0  0  0
    5.8792   -1.3216    0.0000 O   0  0  0  0  0  0  0  0  0  0  0  0
    3.5884   -3.5403    0.0000 C   0  0  0  0  0  0  0  0  0  0  0  0
    0.7289   -2.7153    0.0000 C   0  0  0  0  0  0  0  0  0  0  0  0
    0.7289   -3.5403    0.0000 C   0  0  0  0  0  0  0  0  0  0  0  0
    6.6001   -0.8971    0.0000 C   0  0  0  0  0  0  0  0  0  0  0  0
    2.8755   -3.9488    0.0000 C   0  0  0  0  0  0  0  0  0  0  0  0
    2.8755   -3.1238    0.0000 F   0  0  0  0  0  0  0  0  0  0  0  0
    5.7670    0.0000    0.0000 O   0  0  0  0  0  0  0  0  0  0  0  0
    6.6001   -0.0641    0.0000 O   0  0  0  0  0  0  0  0  0  0  0  0
    0.0000   -3.9568    0.0000 O   0  0  0  0  0  0  0  0  0  0  0  0
    4.2932   -0.6488    0.0000 C   0  0  0  0  0  0  0  0  0  0  0  0
    2.1386   -1.0733    0.0000 O   0  0  0  0  0  0  0  0  0  0  0  0
    2.1547   -1.9063    0.0000 C   0  0  0  0  0  0  0  0  0  0  0  0
    4.3493    0.0000    0.0000 C   0  0  0  0  0  0  0  0  0  0  0  0
    3.6604   -0.4165    0.0000 Cl  0  0  0  0  0  0  0  0  0  0  0  0
    6.3678   -1.8983    0.0000 C   0  0  0  0  0  0  0  0  0  0  0  0
    7.3129   -1.3216    0.0000 C   0  0  0  0  0  0  0  0  0  0  0  0
    8.0098   -0.8891    0.0000 C   0  0  0  0  0  0  0  0  0  0  0  0
  1  3  1  0
  1  5  1  0
  1  9  1  0
  1 25  1  1
  2  8  1  0
  2  4  1  0
  2 21  1  6
  2  6  1  0
  3 10  1  0
  3 14  1  0
  3 15  1  6
  4  7  1  0
  4 11  1  0
  4 27  1  1
  5  6  1  0
  5 12  1  1
  6 16  1  6
  7 13  2  0
  7 20  1  0
  8  9  1  0
  8 26  1  1
 10 30  1  1
 10 12  1  0
 11 17  2  0
 13 18  1  0
 14 22  2  0
 14 28  1  0
 15 19  1  0
 16 20  1  0
 17 18  1  0
 18 24  2  0
 19 23  2  0
 19 31  1  0
 28 29  1  0
 31 32  1  0
M  END
>  <Formula>  (715) 
C25H32ClFO5

>  <FW>  (715) 
466.9700

>  <DSSTox_CID>  (715) 
25907

>  <NR-AR>  (715) 
1

>  <NR-AR-LBD>  (715) 
1

>  <NR-ER>  (715) 
0

>  <NR-ER-LBD>  (715) 
0

>  <NR-PPAR-gamma>  (715) 
0

>  <NR-AhR>  (715) 
1

>  <SR-ATAD5>  (715) 
0

>  <SR-MMP>  (715) 
1

>  <SR-p53>  (715) 
0

$$$$
NCGC00021191-07
     RDKit          2D

 29 32  0  0  1  0  0  0  0  0999 V2000
    4.3116   -1.6217    0.0000 C   0  0  0  0  0  0  0  0  0  0  0  0
    2.1519   -2.8457    0.0000 C   0  0  0  0  0  0  0  0  0  0  0  0
    5.0912   -1.3800    0.0000 C   0  0  0  0  0  0  0  0  0  0  0  0
    2.8692   -2.4326    0.0000 C   0  0  0  0  0  0  0  0  0  0  0  0
    3.5864   -2.8536    0.0000 C   0  0  0  0  0  0  0  0  0  0  0  0
    4.3116   -2.4404    0.0000 C   0  0  0  0  0  0  0  0  0  0  0  0
    2.8692   -1.6217    0.0000 C   0  0  0  0  0  0  0  0  0  0  0  0
    2.1519   -3.6722    0.0000 C   0  0  0  0  0  0  0  0  0  0  0  0
    3.5864   -1.2163    0.0000 C   0  0  0  0  0  0  0  0  0  0  0  0
    5.3017   -0.5769    0.0000 C   0  0  0  0  0  0  0  0  0  0  0  0
    1.4346   -4.0854    0.0000 C   0  0  0  0  0  0  0  0  0  0  0  0
    5.5668   -2.0115    0.0000 C   0  0  0  0  0  0  0  0  0  0  0  0
    5.0912   -2.6898    0.0000 C   0  0  0  0  0  0  0  0  0  0  0  0
    3.5864   -3.6645    0.0000 C   0  0  0  0  0  0  0  0  0  0  0  0
    1.4346   -2.4326    0.0000 C   0  0  0  0  0  0  0  0  0  0  0  0
    2.8692   -4.0854    0.0000 C   0  0  0  0  0  0  0  0  0  0  0  0
    0.7251   -3.6645    0.0000 C   0  0  0  0  0  0  0  0  0  0  0  0
    7.3211   -0.7953    0.0000 C   0  0  0  0  0  0  0  0  0  0  0  0
    2.1363   -1.1929    0.0000 O   0  0  0  0  0  0  0  0  0  0  0  0
    6.0892   -0.3820    0.0000 C   0  0  0  0  0  0  0  0  0  0  0  0
    4.7326    0.0000    0.0000 O   0  0  0  0  0  0  0  0  0  0  0  0
    6.6661   -0.9590    0.0000 O   0  0  0  0  0  0  0  0  0  0  0  0
    7.4926   -0.1403    0.0000 O   0  0  0  0  0  0  0  0  0  0  0  0
    0.0000   -4.0621    0.0000 O   0  0  0  0  0  0  0  0  0  0  0  0
    5.9020   -1.4502    0.0000 O   0  0  0  0  0  0  0  0  0  0  0  0
    4.3116   -0.7953    0.0000 C   0  0  0  0  0  0  0  0  0  0  0  0
    0.7251   -2.8536    0.0000 C   0  0  0  0  0  0  0  0  0  0  0  0
    2.1519   -2.0115    0.0000 C   0  0  0  0  0  0  0  0  0  0  0  0
    7.7967   -1.2786    0.0000 C   0  0  0  0  0  0  0  0  0  0  0  0
  1  3  1  0
  1  6  1  0
  1  9  1  0
  1 26  1  1
  2  4  1  0
  2  8  1  0
  2 15  1  0
  2 28  1  1
  3 10  1  0
  3 12  1  0
  3 25  1  6
  4  7  1  1
  4  5  1  0
  5  6  1  0
  5 14  1  6
  6 13  1  1
  7  9  1  0
  7 19  2  0
  8 11  2  0
  8 16  1  0
 10 20  1  0
 10 21  2  0
 11 17  1  0
 12 13  1  0
 14 16  1  0
 15 27  1  0
 17 27  1  0
 17 24  2  0
 18 22  1  0
 18 23  2  0
 18 29  1  0
 20 22  1  0
M  END
>  <Formula>  (716) 
C23H30O6

>  <FW>  (716) 
402.4807

>  <DSSTox_CID>  (716) 
2858

>  <NR-Aromatase>  (716) 
0

>  <NR-AR>  (716) 
0

>  <NR-AR-LBD>  (716) 
1

>  <NR-ER>  (716) 
0

>  <NR-ER-LBD>  (716) 
0

>  <NR-PPAR-gamma>  (716) 
0

>  <NR-AhR>  (716) 
0

>  <SR-ATAD5>  (716) 
0

>  <SR-MMP>  (716) 
0

>  <SR-p53>  (716) 
0

$$$$
NCGC00181018-01
     RDKit          2D

 28 31  0  0  1  0  0  0  0  0999 V2000
    2.8914   -3.5906    0.0000 C   0  0  0  0  0  0  0  0  0  0  0  0
    4.3371   -2.7892    0.0000 C   0  0  0  0  0  0  0  0  0  0  0  0
    2.1685   -3.9835    0.0000 C   0  0  0  0  0  0  0  0  0  0  0  0
    5.1149   -2.5378    0.0000 C   0  0  0  0  0  0  0  0  0  0  0  0
    2.1685   -4.8085    0.0000 C   0  0  0  0  0  0  0  0  0  0  0  0
    4.3371   -3.6142    0.0000 C   0  0  0  0  0  0  0  0  0  0  0  0
    3.6064   -4.0071    0.0000 C   0  0  0  0  0  0  0  0  0  0  0  0
    2.8914   -2.7657    0.0000 C   0  0  0  0  0  0  0  0  0  0  0  0
    3.6064   -2.3571    0.0000 C   0  0  0  0  0  0  0  0  0  0  0  0
    5.4213   -1.7678    0.0000 C   0  0  0  0  0  0  0  0  0  0  0  0
    1.4535   -5.2092    0.0000 C   0  0  0  0  0  0  0  0  0  0  0  0
    5.6099   -3.2135    0.0000 C   0  0  0  0  0  0  0  0  0  0  0  0
    5.1306   -3.8814    0.0000 C   0  0  0  0  0  0  0  0  0  0  0  0
    1.4535   -3.5592    0.0000 C   0  0  0  0  0  0  0  0  0  0  0  0
    3.6064   -4.8321    0.0000 C   0  0  0  0  0  0  0  0  0  0  0  0
    2.8914   -5.2328    0.0000 C   0  0  0  0  0  0  0  0  0  0  0  0
    0.7228   -4.7849    0.0000 C   0  0  0  0  0  0  0  0  0  0  0  0
    7.3385   -0.7778    0.0000 C   0  0  0  0  0  0  0  0  0  0  0  0
    6.2228   -1.6500    0.0000 C   0  0  0  0  0  0  0  0  0  0  0  0
    4.9106   -1.1235    0.0000 O   0  0  0  0  0  0  0  0  0  0  0  0
    6.5213   -0.8878    0.0000 O   0  0  0  0  0  0  0  0  0  0  0  0
    7.6370    0.0000    0.0000 O   0  0  0  0  0  0  0  0  0  0  0  0
    0.0000   -5.1856    0.0000 O   0  0  0  0  0  0  0  0  0  0  0  0
    6.1992   -2.5378    0.0000 O   0  0  0  0  0  0  0  0  0  0  0  0
    0.7385   -3.9599    0.0000 C   0  0  0  0  0  0  0  0  0  0  0  0
    4.2978   -1.9485    0.0000 C   0  0  0  0  0  0  0  0  0  0  0  0
    2.1685   -3.1664    0.0000 C   0  0  0  0  0  0  0  0  0  0  0  0
    7.8570   -1.4222    0.0000 C   0  0  0  0  0  0  0  0  0  0  0  0
  1  3  1  0
  1  7  1  0
  1  8  2  0
  2  4  1  0
  2 26  1  1
  2  6  1  0
  2  9  1  0
  3  5  1  0
  3 14  1  0
  3 27  1  1
  4 10  1  0
  4 24  1  6
  4 12  1  0
  5 11  2  0
  5 16  1  0
  6  7  1  0
  6 13  1  1
  7 15  1  6
  8  9  1  0
 10 19  1  0
 10 20  2  0
 11 17  1  0
 12 13  1  0
 14 25  1  0
 15 16  1  0
 17 25  1  0
 17 23  2  0
 18 21  1  0
 18 22  2  0
 18 28  1  0
 19 21  1  0
M  END
>  <Formula>  (717) 
C23H30O5

>  <FW>  (717) 
386.4813

>  <DSSTox_CID>  (717) 
26805

>  <NR-Aromatase>  (717) 
0

>  <NR-AR>  (717) 
1

>  <NR-AR-LBD>  (717) 
1

>  <NR-ER>  (717) 
1

>  <NR-ER-LBD>  (717) 
0

>  <NR-PPAR-gamma>  (717) 
0

>  <NR-AhR>  (717) 
0

>  <SR-ATAD5>  (717) 
0

>  <SR-MMP>  (717) 
0

>  <SR-p53>  (717) 
0

$$$$
NCGC00256631-01
     RDKit          2D

 27 30  0  0  1  0  0  0  0  0999 V2000
    2.1571   -2.8843    0.0000 C   0  0  0  0  0  0  0  0  0  0  0  0
    2.8660   -2.4749    0.0000 C   0  0  0  0  0  0  0  0  0  0  0  0
    4.3021   -1.6560    0.0000 C   0  0  0  0  0  0  0  0  0  0  0  0
    2.1571   -3.7154    0.0000 C   0  0  0  0  0  0  0  0  0  0  0  0
    3.5871   -2.8843    0.0000 C   0  0  0  0  0  0  0  0  0  0  0  0
    5.0843   -1.3872    0.0000 C   0  0  0  0  0  0  0  0  0  0  0  0
    4.3021   -2.4749    0.0000 C   0  0  0  0  0  0  0  0  0  0  0  0
    2.8660   -1.6560    0.0000 C   0  0  0  0  0  0  0  0  0  0  0  0
    1.4605   -2.4749    0.0000 C   0  0  0  0  0  0  0  0  0  0  0  0
    3.5871   -1.2466    0.0000 C   0  0  0  0  0  0  0  0  0  0  0  0
    3.5871   -3.7154    0.0000 C   0  0  0  0  0  0  0  0  0  0  0  0
    1.4605   -4.1249    0.0000 C   0  0  0  0  0  0  0  0  0  0  0  0
    2.8660   -4.1249    0.0000 C   0  0  0  0  0  0  0  0  0  0  0  0
    5.5793   -2.0655    0.0000 C   0  0  0  0  0  0  0  0  0  0  0  0
    5.0843   -2.7255    0.0000 C   0  0  0  0  0  0  0  0  0  0  0  0
    0.7394   -2.8843    0.0000 C   0  0  0  0  0  0  0  0  0  0  0  0
    5.3104   -0.5989    0.0000 C   0  0  0  0  0  0  0  0  0  0  0  0
    0.7394   -3.7154    0.0000 C   0  0  0  0  0  0  0  0  0  0  0  0
    2.8660   -3.1838    0.0000 F   0  0  0  0  0  0  0  0  0  0  0  0
    4.7360    0.0000    0.0000 O   0  0  0  0  0  0  0  0  0  0  0  0
    0.0000   -4.1432    0.0000 O   0  0  0  0  0  0  0  0  0  0  0  0
    5.9215   -1.3872    0.0000 O   0  0  0  0  0  0  0  0  0  0  0  0
    2.1571   -2.0655    0.0000 C   0  0  0  0  0  0  0  0  0  0  0  0
    4.3021   -0.8189    0.0000 C   0  0  0  0  0  0  0  0  0  0  0  0
    2.1449   -1.2283    0.0000 O   0  0  0  0  0  0  0  0  0  0  0  0
    2.8783   -4.7726    0.0000 C   0  0  0  0  0  0  0  0  0  0  0  0
    6.1109   -0.3911    0.0000 C   0  0  0  0  0  0  0  0  0  0  0  0
  1  2  1  0
  1  4  1  0
  1  9  1  0
  1 23  1  1
  2  5  1  0
  2  8  1  0
  2 19  1  6
  3 10  1  0
  3  6  1  0
  3 24  1  1
  3  7  1  0
  4 12  2  0
  4 13  1  0
  5  7  1  0
  5 11  1  6
  6 17  1  0
  6 22  1  6
  6 14  1  0
  7 15  1  1
  8 10  1  0
  8 25  1  1
  9 16  2  0
 11 13  1  0
 12 18  1  0
 13 26  1  6
 14 15  1  0
 16 18  1  0
 17 20  2  0
 17 27  1  0
 18 21  2  0
M  END
>  <Formula>  (718) 
C22H29FO4

>  <FW>  (718) 
376.4617

>  <DSSTox_CID>  (718) 
27435

>  <NR-AR>  (718) 
1

>  <NR-AR-LBD>  (718) 
1

>  <NR-ER>  (718) 
0

>  <NR-ER-LBD>  (718) 
0

>  <NR-AhR>  (718) 
0

>  <SR-ARE>  (718) 
0

>  <SR-ATAD5>  (718) 
0

>  <SR-HSE>  (718) 
0

>  <SR-p53>  (718) 
0

$$$$
NCGC00256717-01
     RDKit          2D

 34 35  0  0  1  0  0  0  0  0999 V2000
    6.0102    0.0000    0.0000 Na  0  0  0  0  0 15  0  0  0  0  0  0
    8.4177   -1.4899    0.0000 Na  0  0  0  0  0 15  0  0  0  0  0  0
    4.3098   -2.2223    0.0000 C   0  0  0  0  0  0  0  0  0  0  0  0
    2.8873   -3.0556    0.0000 C   0  0  0  0  0  0  0  0  0  0  0  0
    2.1633   -3.4513    0.0000 C   0  0  0  0  0  0  0  0  0  0  0  0
    4.3098   -3.0556    0.0000 C   0  0  0  0  0  0  0  0  0  0  0  0
    3.5943   -3.4513    0.0000 C   0  0  0  0  0  0  0  0  0  0  0  0
    5.1179   -1.9781    0.0000 C   0  0  0  0  0  0  0  0  0  0  0  0
    2.1633   -4.2930    0.0000 C   0  0  0  0  0  0  0  0  0  0  0  0
    2.8873   -2.2223    0.0000 C   0  0  0  0  0  0  0  0  0  0  0  0
    3.5943   -1.8266    0.0000 C   0  0  0  0  0  0  0  0  0  0  0  0
    5.5893   -2.6347    0.0000 C   0  0  0  0  0  0  0  0  0  0  0  0
    1.4646   -3.0556    0.0000 C   0  0  0  0  0  0  0  0  0  0  0  0
    5.1011   -3.3081    0.0000 C   0  0  0  0  0  0  0  0  0  0  0  0
    1.4646   -4.7139    0.0000 C   0  0  0  0  0  0  0  0  0  0  0  0
    5.1179   -1.1364    0.0000 C   0  0  0  0  0  0  0  0  0  0  0  0
    3.5943   -4.2930    0.0000 C   0  0  0  0  0  0  0  0  0  0  0  0
    0.7408   -3.4513    0.0000 C   0  0  0  0  0  0  0  0  0  0  0  0
    0.7408   -4.2930    0.0000 C   0  0  0  0  0  0  0  0  0  0  0  0
    2.8873   -4.7139    0.0000 C   0  0  0  0  0  0  0  0  0  0  0  0
    2.8620   -3.7627    0.0000 F   0  0  0  0  0  0  0  0  0  0  0  0
    4.4024   -0.7155    0.0000 O   0  0  0  0  0  0  0  0  0  0  0  0
    0.0000   -4.7307    0.0000 O   0  0  0  0  0  0  0  0  0  0  0  0
    5.9260   -1.9613    0.0000 O   0  0  0  0  0  0  0  0  0  0  0  0
    4.3098   -1.3805    0.0000 C   0  0  0  0  0  0  0  0  0  0  0  0
    2.1549   -1.8014    0.0000 O   0  0  0  0  0  0  0  0  0  0  0  0
    2.1633   -2.6347    0.0000 C   0  0  0  0  0  0  0  0  0  0  0  0
    6.4143   -2.6347    0.0000 C   0  0  0  0  0  0  0  0  0  0  0  0
    5.8250   -0.7324    0.0000 C   0  0  0  0  0  0  0  0  0  0  0  0
    6.5573   -1.1532    0.0000 O   0  0  0  0  0  0  0  0  0  0  0  0
    7.2644   -0.7660    0.0000 P   0  0  0  0  0  0  0  0  0  0  0  0
    7.9883   -0.3451    0.0000 O   0  0  0  0  0  0  0  0  0  0  0  0
    6.8604   -0.0336    0.0000 O   0  0  0  0  0  0  0  0  0  0  0  0
    7.6769   -1.4731    0.0000 O   0  0  0  0  0  0  0  0  0  0  0  0
  3  6  1  0
  3  8  1  0
  3 11  1  0
  3 25  1  1
  4 10  1  0
  4  5  1  0
  4 21  1  6
  4  7  1  0
  5  9  1  0
  5 13  1  0
  5 27  1  1
  6  7  1  0
  6 14  1  1
  7 17  1  6
  8 12  1  0
  8 16  1  0
  8 24  1  6
  9 15  2  0
  9 20  1  0
 10 11  1  0
 10 26  1  1
 12 28  1  1
 12 14  1  0
 13 18  2  0
 15 19  1  0
 16 22  2  0
 16 29  1  0
 17 20  1  0
 18 19  1  0
 19 23  2  0
 29 30  1  0
 30 31  1  0
 31 32  2  0
 31 33  1  0
 31 34  1  0
M  CHG  4   1   1   2   1  33  -1  34  -1
M  END
>  <Formula>  (719) 
C22H28FNa2O8P

>  <FW>  (719) 
516.4046 (22.9892+22.9892+470.4262)

>  <DSSTox_CID>  (719) 
27137

>  <NR-AR>  (719) 
1

>  <NR-AR-LBD>  (719) 
1

>  <NR-ER>  (719) 
0

>  <NR-ER-LBD>  (719) 
0

>  <NR-PPAR-gamma>  (719) 
0

>  <SR-ARE>  (719) 
0

>  <SR-ATAD5>  (719) 
0

>  <SR-HSE>  (719) 
0

>  <SR-MMP>  (719) 
0

>  <SR-p53>  (719) 
0

$$$$
NCGC00183276-01
     RDKit          2D

 35 38  0  0  1  0  0  0  0  0999 V2000
    4.3153   -2.2923    0.0000 C   0  0  0  0  0  0  0  0  0  0  0  0
    2.1620   -3.5339    0.0000 C   0  0  0  0  0  0  0  0  0  0  0  0
    5.1055   -2.0578    0.0000 C   0  0  0  0  0  0  0  0  0  0  0  0
    3.5947   -3.5339    0.0000 C   0  0  0  0  0  0  0  0  0  0  0  0
    4.3153   -3.1258    0.0000 C   0  0  0  0  0  0  0  0  0  0  0  0
    2.8740   -3.1171    0.0000 C   0  0  0  0  0  0  0  0  0  0  0  0
    2.1620   -4.3587    0.0000 C   0  0  0  0  0  0  0  0  0  0  0  0
    3.5947   -1.8841    0.0000 C   0  0  0  0  0  0  0  0  0  0  0  0
    2.8740   -2.2923    0.0000 C   0  0  0  0  0  0  0  0  0  0  0  0
    1.4500   -4.7669    0.0000 C   0  0  0  0  0  0  0  0  0  0  0  0
    5.1055   -1.2243    0.0000 C   0  0  0  0  0  0  0  0  0  0  0  0
    5.5656   -2.7004    0.0000 C   0  0  0  0  0  0  0  0  0  0  0  0
    5.1055   -3.3776    0.0000 C   0  0  0  0  0  0  0  0  0  0  0  0
    3.5947   -4.3501    0.0000 C   0  0  0  0  0  0  0  0  0  0  0  0
    1.4500   -3.1171    0.0000 C   0  0  0  0  0  0  0  0  0  0  0  0
    2.8740   -4.7669    0.0000 C   0  0  0  0  0  0  0  0  0  0  0  0
    0.7380   -4.3501    0.0000 C   0  0  0  0  0  0  0  0  0  0  0  0
    5.8088   -0.7988    0.0000 O   0  0  0  0  0  0  0  0  0  0  0  0
    0.0000   -4.7495    0.0000 O   0  0  0  0  0  0  0  0  0  0  0  0
    4.3153   -1.4674    0.0000 C   0  0  0  0  0  0  0  0  0  0  0  0
    0.7380   -3.5339    0.0000 C   0  0  0  0  0  0  0  0  0  0  0  0
    2.1447   -1.8841    0.0000 O   0  0  0  0  0  0  0  0  0  0  0  0
    2.1620   -2.7004    0.0000 C   0  0  0  0  0  0  0  0  0  0  0  0
    4.3848   -0.8162    0.0000 C   0  0  0  0  0  0  0  0  0  0  0  0
    3.6728   -1.2330    0.0000 O   0  0  0  0  0  0  0  0  0  0  0  0
    5.8175   -1.6411    0.0000 O   0  0  0  0  0  0  0  0  0  0  0  0
    6.5381   -2.0578    0.0000 C   0  0  0  0  0  0  0  0  0  0  0  0
    6.5381   -2.8827    0.0000 O   0  0  0  0  0  0  0  0  0  0  0  0
    7.2501   -1.6411    0.0000 C   0  0  0  0  0  0  0  0  0  0  0  0
    7.9708   -2.0578    0.0000 C   0  0  0  0  0  0  0  0  0  0  0  0
    8.6828   -1.6411    0.0000 C   0  0  0  0  0  0  0  0  0  0  0  0
    2.9521   -0.8248    0.0000 C   0  0  0  0  0  0  0  0  0  0  0  0
    2.9521    0.0000    0.0000 O   0  0  0  0  0  0  0  0  0  0  0  0
    2.2489   -1.2416    0.0000 C   0  0  0  0  0  0  0  0  0  0  0  0
    1.5195   -0.8335    0.0000 C   0  0  0  0  0  0  0  0  0  0  0  0
  1  3  1  0
  1  5  1  0
  1  8  1  0
  1 20  1  1
  2  6  1  0
  2  7  1  0
  2 15  1  0
  2 23  1  1
  3 11  1  0
  3 12  1  0
  3 26  1  6
  4  5  1  0
  4 14  1  6
  4  6  1  0
  5 13  1  1
  6  9  1  1
  7 10  2  0
  7 16  1  0
  8  9  1  0
  9 22  1  1
 10 17  1  0
 11 18  2  0
 11 24  1  0
 12 13  1  0
 14 16  1  0
 15 21  1  0
 17 21  1  0
 17 19  2  0
 24 25  1  0
 25 32  1  0
 26 27  1  0
 27 28  2  0
 27 29  1  0
 29 30  1  0
 30 31  1  0
 32 33  2  0
 32 34  1  0
 34 35  1  0
M  END
>  <Formula>  (720) 
C28H40O7

>  <FW>  (720) 
488.6130

>  <DSSTox_CID>  (720) 
28529

>  <NR-AR>  (720) 
1

>  <NR-AR-LBD>  (720) 
1

>  <NR-ER-LBD>  (720) 
0

>  <NR-PPAR-gamma>  (720) 
0

>  <NR-AhR>  (720) 
0

>  <SR-ARE>  (720) 
0

>  <SR-ATAD5>  (720) 
0

>  <SR-HSE>  (720) 
0

>  <SR-MMP>  (720) 
0

>  <SR-p53>  (720) 
0

$$$$
NCGC00254049-01
     RDKit          2D

 28 31  0  0  1  0  0  0  0  0999 V2000
    4.2947   -1.5012    0.0000 C   0  0  0  0  0  0  0  0  0  0  0  0
    2.8849   -2.3170    0.0000 C   0  0  0  0  0  0  0  0  0  0  0  0
    5.0844   -1.2597    0.0000 C   0  0  0  0  0  0  0  0  0  0  0  0
    2.1669   -2.7348    0.0000 C   0  0  0  0  0  0  0  0  0  0  0  0
    4.2947   -2.3301    0.0000 C   0  0  0  0  0  0  0  0  0  0  0  0
    3.5833   -2.7348    0.0000 C   0  0  0  0  0  0  0  0  0  0  0  0
    2.1669   -3.5637    0.0000 C   0  0  0  0  0  0  0  0  0  0  0  0
    2.8849   -1.5012    0.0000 C   0  0  0  0  0  0  0  0  0  0  0  0
    5.5609   -1.8993    0.0000 C   0  0  0  0  0  0  0  0  0  0  0  0
    3.5702   -1.0835    0.0000 C   0  0  0  0  0  0  0  0  0  0  0  0
    1.4555   -2.3170    0.0000 C   0  0  0  0  0  0  0  0  0  0  0  0
    5.0844   -2.5585    0.0000 C   0  0  0  0  0  0  0  0  0  0  0  0
    1.4555   -3.9683    0.0000 C   0  0  0  0  0  0  0  0  0  0  0  0
    5.0844   -0.4308    0.0000 C   0  0  0  0  0  0  0  0  0  0  0  0
    3.5833   -3.5637    0.0000 C   0  0  0  0  0  0  0  0  0  0  0  0
    0.7441   -2.7348    0.0000 C   0  0  0  0  0  0  0  0  0  0  0  0
    0.7441   -3.5637    0.0000 C   0  0  0  0  0  0  0  0  0  0  0  0
    2.8849   -3.9683    0.0000 C   0  0  0  0  0  0  0  0  0  0  0  0
    2.8980   -3.1068    0.0000 F   0  0  0  0  0  0  0  0  0  0  0  0
    4.3600    0.0000    0.0000 O   0  0  0  0  0  0  0  0  0  0  0  0
    0.0000   -3.9553    0.0000 O   0  0  0  0  0  0  0  0  0  0  0  0
    4.2947   -0.6788    0.0000 C   0  0  0  0  0  0  0  0  0  0  0  0
    2.1539   -1.0835    0.0000 O   0  0  0  0  0  0  0  0  0  0  0  0
    6.3898   -1.8732    0.0000 O   0  0  0  0  0  0  0  0  0  0  0  0
    2.1669   -1.8993    0.0000 C   0  0  0  0  0  0  0  0  0  0  0  0
    5.8024    0.0000    0.0000 C   0  0  0  0  0  0  0  0  0  0  0  0
    6.5269   -0.3851    0.0000 O   0  0  0  0  0  0  0  0  0  0  0  0
    5.8024   -0.8485    0.0000 O   0  0  0  0  0  0  0  0  0  0  0  0
  1  3  1  0
  1  5  1  0
  1 10  1  0
  1 22  1  1
  2  8  1  0
  2  4  1  0
  2 19  1  6
  2  6  1  0
  3  9  1  0
  3 14  1  0
  3 28  1  6
  4  7  1  0
  4 11  1  0
  4 25  1  1
  5  6  1  0
  5 12  1  1
  6 15  1  6
  7 13  2  0
  7 18  1  0
  8 10  1  0
  8 23  1  1
  9 24  1  6
  9 12  1  0
 11 16  2  0
 13 17  1  0
 14 20  2  0
 14 26  1  0
 15 18  1  0
 16 17  1  0
 17 21  2  0
 26 27  1  0
M  END
>  <Formula>  (721) 
C21H27FO6

>  <FW>  (721) 
394.4339

>  <DSSTox_CID>  (721) 
20742

>  <NR-AR>  (721) 
1

>  <NR-AR-LBD>  (721) 
1

>  <NR-ER>  (721) 
1

>  <NR-ER-LBD>  (721) 
0

>  <NR-PPAR-gamma>  (721) 
0

>  <NR-AhR>  (721) 
0

>  <SR-ATAD5>  (721) 
0

>  <SR-HSE>  (721) 
0

>  <SR-MMP>  (721) 
0

>  <SR-p53>  (721) 
0

$$$$
NCGC00255195-01
     RDKit          2D

 28 31  0  0  1  0  0  0  0  0999 V2000
    4.3068   -1.6544    0.0000 C   0  0  0  0  0  0  0  0  0  0  0  0
    2.8802   -2.4850    0.0000 C   0  0  0  0  0  0  0  0  0  0  0  0
    2.1635   -2.8935    0.0000 C   0  0  0  0  0  0  0  0  0  0  0  0
    4.3068   -2.4850    0.0000 C   0  0  0  0  0  0  0  0  0  0  0  0
    3.5901   -2.8935    0.0000 C   0  0  0  0  0  0  0  0  0  0  0  0
    5.0972   -1.3932    0.0000 C   0  0  0  0  0  0  0  0  0  0  0  0
    2.1635   -3.7241    0.0000 C   0  0  0  0  0  0  0  0  0  0  0  0
    2.8802   -1.6544    0.0000 C   0  0  0  0  0  0  0  0  0  0  0  0
    3.5901   -1.2459    0.0000 C   0  0  0  0  0  0  0  0  0  0  0  0
    5.5862   -2.0697    0.0000 C   0  0  0  0  0  0  0  0  0  0  0  0
    1.4535   -2.4850    0.0000 C   0  0  0  0  0  0  0  0  0  0  0  0
    5.0972   -2.7261    0.0000 C   0  0  0  0  0  0  0  0  0  0  0  0
    1.4535   -4.1394    0.0000 C   0  0  0  0  0  0  0  0  0  0  0  0
    5.3182   -0.5961    0.0000 C   0  0  0  0  0  0  0  0  0  0  0  0
    3.5901   -3.7241    0.0000 C   0  0  0  0  0  0  0  0  0  0  0  0
    0.7368   -2.8935    0.0000 C   0  0  0  0  0  0  0  0  0  0  0  0
    0.7368   -3.7241    0.0000 C   0  0  0  0  0  0  0  0  0  0  0  0
    2.8802   -4.1394    0.0000 C   0  0  0  0  0  0  0  0  0  0  0  0
    2.8735   -3.1749    0.0000 F   0  0  0  0  0  0  0  0  0  0  0  0
    4.7355    0.0000    0.0000 O   0  0  0  0  0  0  0  0  0  0  0  0
    0.0000   -4.1461    0.0000 O   0  0  0  0  0  0  0  0  0  0  0  0
    5.9211   -1.3932    0.0000 O   0  0  0  0  0  0  0  0  0  0  0  0
    4.3068   -0.8105    0.0000 C   0  0  0  0  0  0  0  0  0  0  0  0
    2.1500   -1.2257    0.0000 O   0  0  0  0  0  0  0  0  0  0  0  0
    2.1635   -2.0697    0.0000 C   0  0  0  0  0  0  0  0  0  0  0  0
    6.4100   -2.0630    0.0000 C   0  0  0  0  0  0  0  0  0  0  0  0
    6.1153   -0.3885    0.0000 C   0  0  0  0  0  0  0  0  0  0  0  0
    6.6980   -0.9846    0.0000 O   0  0  0  0  0  0  0  0  0  0  0  0
  1  4  1  0
  1  6  1  0
  1  9  1  0
  1 23  1  1
  2  8  1  0
  2  3  1  0
  2 19  1  6
  2  5  1  0
  3  7  1  0
  3 11  1  0
  3 25  1  1
  4  5  1  0
  4 12  1  1
  5 15  1  6
  6 10  1  0
  6 14  1  0
  6 22  1  6
  7 13  2  0
  7 18  1  0
  8  9  1  0
  8 24  1  1
 10 26  1  1
 10 12  1  0
 11 16  2  0
 13 17  1  0
 14 20  2  0
 14 27  1  0
 15 18  1  0
 16 17  1  0
 17 21  2  0
 27 28  1  0
M  END
>  <Formula>  (722) 
C22H29FO5

>  <FW>  (722) 
392.4611

>  <DSSTox_CID>  (722) 
2667

>  <NR-AR>  (722) 
1

>  <NR-AR-LBD>  (722) 
1

>  <NR-ER-LBD>  (722) 
0

>  <NR-PPAR-gamma>  (722) 
0

>  <NR-AhR>  (722) 
1

>  <SR-ARE>  (722) 
0

>  <SR-ATAD5>  (722) 
0

>  <SR-HSE>  (722) 
0

>  <SR-MMP>  (722) 
0

>  <SR-p53>  (722) 
0

$$$$
NCGC00256783-01
     RDKit          2D

 34 35  0  0  1  0  0  0  0  0999 V2000
    7.6496    0.0000    0.0000 Na  0  0  0  0  0 15  0  0  0  0  0  0
    8.6144   -1.9985    0.0000 Na  0  0  0  0  0 15  0  0  0  0  0  0
    4.2642   -2.6360    0.0000 C   0  0  0  0  0  0  0  0  0  0  0  0
    2.8686   -3.4630    0.0000 C   0  0  0  0  0  0  0  0  0  0  0  0
    2.1364   -3.8593    0.0000 C   0  0  0  0  0  0  0  0  0  0  0  0
    4.2642   -3.4630    0.0000 C   0  0  0  0  0  0  0  0  0  0  0  0
    3.5577   -3.8593    0.0000 C   0  0  0  0  0  0  0  0  0  0  0  0
    5.0739   -2.4034    0.0000 C   0  0  0  0  0  0  0  0  0  0  0  0
    2.1364   -4.6863    0.0000 C   0  0  0  0  0  0  0  0  0  0  0  0
    2.8686   -2.6360    0.0000 C   0  0  0  0  0  0  0  0  0  0  0  0
    3.5577   -2.2484    0.0000 C   0  0  0  0  0  0  0  0  0  0  0  0
    5.5391   -3.0495    0.0000 C   0  0  0  0  0  0  0  0  0  0  0  0
    1.4558   -3.4630    0.0000 C   0  0  0  0  0  0  0  0  0  0  0  0
    5.0566   -3.7128    0.0000 C   0  0  0  0  0  0  0  0  0  0  0  0
    1.4558   -5.1084    0.0000 C   0  0  0  0  0  0  0  0  0  0  0  0
    5.0739   -1.5678    0.0000 C   0  0  0  0  0  0  0  0  0  0  0  0
    3.5577   -4.6863    0.0000 C   0  0  0  0  0  0  0  0  0  0  0  0
    0.7322   -3.8593    0.0000 C   0  0  0  0  0  0  0  0  0  0  0  0
    0.7322   -4.6863    0.0000 C   0  0  0  0  0  0  0  0  0  0  0  0
    2.8686   -5.1084    0.0000 C   0  0  0  0  0  0  0  0  0  0  0  0
    2.8341   -4.1694    0.0000 F   0  0  0  0  0  0  0  0  0  0  0  0
    4.3589   -1.1457    0.0000 O   0  0  0  0  0  0  0  0  0  0  0  0
    0.0000   -5.1256    0.0000 O   0  0  0  0  0  0  0  0  0  0  0  0
    5.8664   -2.3776    0.0000 O   0  0  0  0  0  0  0  0  0  0  0  0
    4.2642   -1.8004    0.0000 C   0  0  0  0  0  0  0  0  0  0  0  0
    2.1364   -2.2225    0.0000 O   0  0  0  0  0  0  0  0  0  0  0  0
    2.1364   -3.0495    0.0000 C   0  0  0  0  0  0  0  0  0  0  0  0
    6.3574   -3.0495    0.0000 C   0  0  0  0  0  0  0  0  0  0  0  0
    5.7717   -1.1629    0.0000 C   0  0  0  0  0  0  0  0  0  0  0  0
    6.4953   -1.5850    0.0000 O   0  0  0  0  0  0  0  0  0  0  0  0
    7.2016   -1.1974    0.0000 P   0  0  0  0  0  0  0  0  0  0  0  0
    7.9166   -0.7753    0.0000 O   0  0  0  0  0  0  0  0  0  0  0  0
    6.7968   -0.4738    0.0000 O   0  0  0  0  0  0  0  0  0  0  0  0
    7.6065   -1.9038    0.0000 O   0  0  0  0  0  0  0  0  0  0  0  0
  3  6  1  0
  3  8  1  0
  3 11  1  0
  3 25  1  1
  4 10  1  0
  4  5  1  0
  4 21  1  6
  4  7  1  0
  5  9  1  0
  5 13  1  0
  5 27  1  1
  6  7  1  0
  6 14  1  1
  7 17  1  6
  8 12  1  0
  8 16  1  0
  8 24  1  6
  9 15  2  0
  9 20  1  0
 10 11  1  0
 10 26  1  1
 12 28  1  6
 12 14  1  0
 13 18  2  0
 15 19  1  0
 16 22  2  0
 16 29  1  0
 17 20  1  0
 18 19  1  0
 19 23  2  0
 29 30  1  0
 30 31  1  0
 31 32  2  0
 31 33  1  0
 31 34  1  0
M  CHG  4   1   1   2   1  33  -1  34  -1
M  END
>  <Formula>  (723) 
C22H28FNa2O8P

>  <FW>  (723) 
516.4046 (22.9892+22.9892+470.4262)

>  <DSSTox_CID>  (723) 
27429

>  <NR-AR>  (723) 
1

>  <NR-AR-LBD>  (723) 
1

>  <NR-ER-LBD>  (723) 
0

>  <NR-PPAR-gamma>  (723) 
0

>  <NR-AhR>  (723) 
0

>  <SR-ARE>  (723) 
0

>  <SR-ATAD5>  (723) 
0

>  <SR-HSE>  (723) 
0

>  <SR-MMP>  (723) 
0

>  <SR-p53>  (723) 
0

$$$$
NCGC00257676-01
     RDKit          2D

 28 31  0  0  1  0  0  0  0  0999 V2000
    4.3061   -1.6634    0.0000 C   0  0  0  0  0  0  0  0  0  0  0  0
    2.8841   -2.4884    0.0000 C   0  0  0  0  0  0  0  0  0  0  0  0
    2.1664   -2.9043    0.0000 C   0  0  0  0  0  0  0  0  0  0  0  0
    4.3061   -2.4884    0.0000 C   0  0  0  0  0  0  0  0  0  0  0  0
    3.5951   -2.9043    0.0000 C   0  0  0  0  0  0  0  0  0  0  0  0
    5.1042   -1.4018    0.0000 C   0  0  0  0  0  0  0  0  0  0  0  0
    2.1664   -3.7292    0.0000 C   0  0  0  0  0  0  0  0  0  0  0  0
    2.8841   -1.6634    0.0000 C   0  0  0  0  0  0  0  0  0  0  0  0
    3.5951   -1.2543    0.0000 C   0  0  0  0  0  0  0  0  0  0  0  0
    5.5939   -2.0793    0.0000 C   0  0  0  0  0  0  0  0  0  0  0  0
    1.4555   -2.4884    0.0000 C   0  0  0  0  0  0  0  0  0  0  0  0
    5.1042   -2.7365    0.0000 C   0  0  0  0  0  0  0  0  0  0  0  0
    1.4555   -4.1518    0.0000 C   0  0  0  0  0  0  0  0  0  0  0  0
    5.3256   -0.5969    0.0000 C   0  0  0  0  0  0  0  0  0  0  0  0
    3.5951   -3.7292    0.0000 C   0  0  0  0  0  0  0  0  0  0  0  0
    0.7378   -2.9043    0.0000 C   0  0  0  0  0  0  0  0  0  0  0  0
    0.7378   -3.7292    0.0000 C   0  0  0  0  0  0  0  0  0  0  0  0
    2.8841   -4.1518    0.0000 C   0  0  0  0  0  0  0  0  0  0  0  0
    2.8774   -3.1859    0.0000 F   0  0  0  0  0  0  0  0  0  0  0  0
    4.7353    0.0000    0.0000 O   0  0  0  0  0  0  0  0  0  0  0  0
    0.0000   -4.1585    0.0000 O   0  0  0  0  0  0  0  0  0  0  0  0
    5.9292   -1.4018    0.0000 O   0  0  0  0  0  0  0  0  0  0  0  0
    4.3061   -0.8116    0.0000 C   0  0  0  0  0  0  0  0  0  0  0  0
    2.1463   -1.2341    0.0000 O   0  0  0  0  0  0  0  0  0  0  0  0
    2.1664   -2.0793    0.0000 C   0  0  0  0  0  0  0  0  0  0  0  0
    6.4188   -2.0659    0.0000 C   0  0  0  0  0  0  0  0  0  0  0  0
    6.1170   -0.3957    0.0000 C   0  0  0  0  0  0  0  0  0  0  0  0
    6.7072   -0.9860    0.0000 O   0  0  0  0  0  0  0  0  0  0  0  0
  1  4  1  0
  1  6  1  0
  1  9  1  0
  1 23  1  1
  2  8  1  0
  2  3  1  0
  2 19  1  6
  2  5  1  0
  3  7  1  0
  3 11  1  0
  3 25  1  1
  4  5  1  0
  4 12  1  1
  5 15  1  6
  6 10  1  0
  6 14  1  0
  6 22  1  6
  7 13  2  0
  7 18  1  0
  8  9  1  0
  8 24  1  1
 10 26  1  6
 10 12  1  0
 11 16  2  0
 13 17  1  0
 14 20  2  0
 14 27  1  0
 15 18  1  0
 16 17  1  0
 17 21  2  0
 27 28  1  0
M  END
>  <Formula>  (724) 
C22H29FO5

>  <FW>  (724) 
392.4611

>  <DSSTox_CID>  (724) 
384

>  <NR-AR>  (724) 
1

>  <NR-AR-LBD>  (724) 
1

>  <NR-ER>  (724) 
0

>  <NR-ER-LBD>  (724) 
0

>  <NR-PPAR-gamma>  (724) 
0

>  <SR-ARE>  (724) 
0

>  <SR-ATAD5>  (724) 
0

>  <SR-HSE>  (724) 
0

>  <SR-MMP>  (724) 
0

>  <SR-p53>  (724) 
0

$$$$
NCGC00168746-01
     RDKit          2D

 56 63  0  0  1  0  0  0  0  0999 V2000
    7.8936   -2.6151    0.0000 O   0  0  0  0  0  0  0  0  0  0  0  0
    7.8936   -3.4384    0.0000 C   0  0  0  0  0  0  0  0  0  0  0  0
    8.6200   -3.8581    0.0000 C   0  0  0  0  0  0  0  0  0  0  0  0
    8.6200   -4.6813    0.0000 C   0  0  0  0  0  0  0  0  0  0  0  0
    7.8936   -5.1010    0.0000 O   0  0  0  0  0  0  0  0  0  0  0  0
    7.1834   -4.6813    0.0000 C   0  0  0  0  0  0  0  0  0  0  0  0
    6.4570   -5.1010    0.0000 C   0  0  0  0  0  0  0  0  0  0  0  0
    7.1834   -3.8581    0.0000 C   0  0  0  0  0  0  0  0  0  0  0  0
    6.4570   -3.4384    0.0000 O   0  0  0  0  0  0  0  0  0  0  0  0
    5.7467   -3.8581    0.0000 C   0  0  0  0  0  0  0  0  0  0  0  0
    5.7467   -4.6813    0.0000 O   0  0  0  0  0  0  0  0  0  0  0  0
    5.0203   -5.1010    0.0000 C   0  0  0  0  0  0  0  0  0  0  0  0
    5.0203   -5.9243    0.0000 C   0  0  0  0  0  0  0  0  0  0  0  0
    4.3100   -4.6813    0.0000 C   0  0  0  0  0  0  0  0  0  0  0  0
    3.5836   -5.1010    0.0000 O   0  0  0  0  0  0  0  0  0  0  0  0
    2.8734   -4.6813    0.0000 C   0  0  0  0  0  0  0  0  0  0  0  0
    2.1469   -5.1010    0.0000 C   0  0  0  0  0  0  0  0  0  0  0  0
    1.4367   -4.6813    0.0000 C   0  0  0  0  0  0  0  0  0  0  0  0
    0.7103   -5.1010    0.0000 O   0  0  0  0  0  0  0  0  0  0  0  0
    1.4367   -3.8581    0.0000 C   0  0  0  0  0  0  0  0  0  0  0  0
    0.7103   -3.4384    0.0000 O   0  0  0  0  0  0  0  0  0  0  0  0
    0.0000   -3.8581    0.0000 C   0  0  0  0  0  0  0  0  0  0  0  0
    2.1469   -3.4384    0.0000 C   0  0  0  0  0  0  0  0  0  0  0  0
    2.1469   -2.6151    0.0000 C   0  0  0  0  0  0  0  0  0  0  0  0
    2.8734   -3.8581    0.0000 O   0  0  0  0  0  0  0  0  0  0  0  0
    4.3100   -3.8581    0.0000 C   0  0  0  0  0  0  0  0  0  0  0  0
    3.5836   -3.4384    0.0000 O   0  0  0  0  0  0  0  0  0  0  0  0
    5.0203   -3.4384    0.0000 C   0  0  0  0  0  0  0  0  0  0  0  0
    9.3303   -5.1010    0.0000 O   0  0  0  0  0  0  0  0  0  0  0  0
   10.0568   -4.6813    0.0000 C   0  0  0  0  0  0  0  0  0  0  0  0
   10.0568   -3.8581    0.0000 C   0  0  0  0  0  0  0  0  0  0  0  0
   10.7670   -3.4384    0.0000 C   0  0  0  0  0  0  0  0  0  0  0  0
   11.4934   -3.8581    0.0000 C   0  0  0  0  0  0  0  0  0  0  0  0
   11.5095   -2.9379    0.0000 C   0  0  0  0  0  0  0  0  0  0  0  0
   11.4934   -4.6813    0.0000 C   0  0  0  0  0  0  0  0  0  0  0  0
   12.2037   -5.1010    0.0000 C   0  0  0  0  0  0  0  0  0  0  0  0
   12.9139   -4.6813    0.0000 C   0  0  0  0  0  0  0  0  0  0  0  0
   12.9139   -3.8581    0.0000 C   0  0  0  0  0  0  0  0  0  0  0  0
   12.2037   -3.4384    0.0000 C   0  0  0  0  0  0  0  0  0  0  0  0
   12.2037   -2.6151    0.0000 C   0  0  0  0  0  0  0  0  0  0  0  0
   12.9139   -2.1954    0.0000 C   0  0  0  0  0  0  0  0  0  0  0  0
   12.9139   -1.3721    0.0000 O   0  0  0  0  0  0  0  0  0  0  0  0
   13.6404   -2.6151    0.0000 C   0  0  0  0  0  0  0  0  0  0  0  0
   13.7211   -1.8080    0.0000 C   0  0  0  0  0  0  0  0  0  0  0  0
   13.6404   -3.4384    0.0000 C   0  0  0  0  0  0  0  0  0  0  0  0
   13.6726   -4.3907    0.0000 O   0  0  0  0  0  0  0  0  0  0  0  0
   14.4313   -3.6966    0.0000 C   0  0  0  0  0  0  0  0  0  0  0  0
   14.9156   -3.0186    0.0000 C   0  0  0  0  0  0  0  0  0  0  0  0
   14.4313   -2.3568    0.0000 C   0  0  0  0  0  0  0  0  0  0  0  0
   14.6896   -1.5658    0.0000 C   0  0  0  0  0  0  0  0  0  0  0  0
   14.1892   -0.8879    0.0000 C   0  0  0  0  0  0  0  0  0  0  0  0
   14.6896   -0.2260    0.0000 O   0  0  0  0  0  0  0  0  0  0  0  0
   15.4644   -1.3076    0.0000 C   0  0  0  0  0  0  0  0  0  0  0  0
   15.4644   -0.4843    0.0000 C   0  0  0  0  0  0  0  0  0  0  0  0
   16.1424    0.0000    0.0000 O   0  0  0  0  0  0  0  0  0  0  0  0
   10.7670   -5.1010    0.0000 C   0  0  0  0  0  0  0  0  0  0  0  0
  2  1  1  1
  2  3  1  0
  2  8  1  0
  3  4  1  0
  4  5  1  0
  4 29  1  6
  5  6  1  0
  6  7  1  6
  6  8  1  0
  8  9  1  1
 10  9  1  6
 10 11  1  0
 10 28  1  0
 11 12  1  0
 12 13  1  6
 12 14  1  0
 14 15  1  1
 14 26  1  0
 16 15  1  1
 16 17  1  0
 16 25  1  0
 17 18  1  0
 18 19  1  6
 18 20  1  0
 20 21  1  6
 20 23  1  0
 21 22  1  0
 23 24  1  1
 23 25  1  0
 26 27  1  1
 26 28  1  0
 30 29  1  1
 30 31  1  0
 30 56  1  0
 31 32  1  0
 32 33  1  0
 33 34  1  1
 33 35  1  0
 33 39  1  0
 35 36  1  6
 35 56  1  0
 36 37  1  0
 38 37  1  6
 38 39  1  0
 38 45  1  0
 39 40  1  1
 40 41  1  0
 41 42  1  1
 41 43  1  0
 43 44  1  1
 43 45  1  0
 43 49  1  0
 45 46  1  1
 45 47  1  0
 47 48  1  0
 49 48  1  1
 49 50  1  0
 50 51  1  0
 50 53  2  0
 51 52  1  0
 52 54  1  0
 53 54  1  0
 54 55  2  0
M  END
>  <Formula>  (725) 
C42H66O14

>  <FW>  (725) 
794.9650

>  <DSSTox_CID>  (725) 
3294

>  <NR-Aromatase>  (725) 
1

>  <NR-ER-LBD>  (725) 
0

>  <SR-MMP>  (725) 
1

>  <SR-p53>  (725) 
0

$$$$
NCGC00013319-01
     RDKit          2D

 41 46  0  0  1  0  0  0  0  0999 V2000
    7.1998   -3.1445    0.0000 C   0  0  0  0  0  0  0  0  0  0  0  0
    7.1998   -3.9607    0.0000 C   0  0  0  0  0  0  0  0  0  0  0  0
    5.7564   -3.9607    0.0000 C   0  0  0  0  0  0  0  0  0  0  0  0
    6.4867   -4.3645    0.0000 C   0  0  0  0  0  0  0  0  0  0  0  0
    5.0433   -4.3645    0.0000 C   0  0  0  0  0  0  0  0  0  0  0  0
    6.4867   -2.7321    0.0000 C   0  0  0  0  0  0  0  0  0  0  0  0
    5.7564   -3.1445    0.0000 C   0  0  0  0  0  0  0  0  0  0  0  0
    6.4867   -5.1893    0.0000 C   0  0  0  0  0  0  0  0  0  0  0  0
    5.0433   -5.1893    0.0000 C   0  0  0  0  0  0  0  0  0  0  0  0
    5.7564   -5.6275    0.0000 C   0  0  0  0  0  0  0  0  0  0  0  0
    7.1998   -2.2940    0.0000 C   0  0  0  0  0  0  0  0  0  0  0  0
    5.0433   -3.5483    0.0000 C   0  0  0  0  0  0  0  0  0  0  0  0
    4.3387   -3.9607    0.0000 C   0  0  0  0  0  0  0  0  0  0  0  0
    4.3387   -5.6275    0.0000 C   0  0  0  0  0  0  0  0  0  0  0  0
    3.6170   -4.3645    0.0000 C   0  0  0  0  0  0  0  0  0  0  0  0
    3.6170   -5.1893    0.0000 C   0  0  0  0  0  0  0  0  0  0  0  0
    7.1998   -4.8027    0.0000 O   0  0  0  0  0  0  0  0  0  0  0  0
    8.5915   -3.9607    0.0000 C   0  0  0  0  0  0  0  0  0  0  0  0
    7.8956   -2.7321    0.0000 C   0  0  0  0  0  0  0  0  0  0  0  0
    8.5915   -3.1445    0.0000 C   0  0  0  0  0  0  0  0  0  0  0  0
    7.8956   -1.9159    0.0000 C   0  0  0  0  0  0  0  0  0  0  0  0
    7.2255   -1.4348    0.0000 C   0  0  0  0  0  0  0  0  0  0  0  0
    8.5658   -1.4348    0.0000 C   0  0  0  0  0  0  0  0  0  0  0  0
    7.4919   -0.6530    0.0000 C   0  0  0  0  0  0  0  0  0  0  0  0
    8.2995   -0.6530    0.0000 O   0  0  0  0  0  0  0  0  0  0  0  0
    6.9935    0.0000    0.0000 O   0  0  0  0  0  0  0  0  0  0  0  0
    5.0347   -2.7321    0.0000 O   0  0  0  0  0  0  0  0  0  0  0  0
    4.3387   -3.1360    0.0000 O   0  0  0  0  0  0  0  0  0  0  0  0
    3.6256   -3.5483    0.0000 O   0  0  0  0  0  0  0  0  0  0  0  0
    2.8868   -5.6533    0.0000 O   0  0  0  0  0  0  0  0  0  0  0  0
    2.1651   -5.2322    0.0000 C   0  0  0  0  0  0  0  0  0  0  0  0
    1.4434   -5.6447    0.0000 C   0  0  0  0  0  0  0  0  0  0  0  0
    2.1651   -4.3903    0.0000 O   0  0  0  0  0  0  0  0  0  0  0  0
    0.7217   -5.2151    0.0000 C   0  0  0  0  0  0  0  0  0  0  0  0
    1.4520   -3.9607    0.0000 C   0  0  0  0  0  0  0  0  0  0  0  0
    0.7217   -4.3817    0.0000 C   0  0  0  0  0  0  0  0  0  0  0  0
    1.4520   -3.1360    0.0000 C   0  0  0  0  0  0  0  0  0  0  0  0
    0.0000   -3.9607    0.0000 O   0  0  0  0  0  0  0  0  0  0  0  0
    0.0000   -5.6361    0.0000 O   0  0  0  0  0  0  0  0  0  0  0  0
    1.4434   -6.4695    0.0000 O   0  0  0  0  0  0  0  0  0  0  0  0
    5.0433   -6.0227    0.0000 O   0  0  0  0  0  0  0  0  0  0  0  0
  1  6  1  0
  1 11  1  1
  1  2  1  0
  1 19  1  0
  2  4  1  0
  2 17  1  1
  2 18  1  0
  3  7  1  1
  3  5  1  0
  3  4  1  0
  4  8  1  6
  5  9  1  0
  5 12  1  1
  5 13  1  0
  6  7  1  0
  7 27  1  6
  8 10  1  0
  9 14  1  0
  9 10  1  0
  9 41  1  1
 12 28  1  0
 13 15  1  0
 13 29  1  1
 14 16  1  0
 15 16  1  0
 16 30  1  1
 18 20  1  0
 19 20  1  1
 19 21  1  0
 21 22  2  0
 21 23  1  0
 22 24  1  0
 23 25  1  0
 24 25  1  0
 24 26  2  0
 31 30  1  1
 31 32  1  0
 31 33  1  0
 32 34  1  0
 32 40  1  6
 33 35  1  0
 34 36  1  0
 34 39  1  6
 35 36  1  0
 35 37  1  6
 36 38  1  1
M  END
>  <Formula>  (726) 
C29H44O12

>  <FW>  (726) 
584.6525

>  <DSSTox_CID>  (726) 
23765

>  <NR-Aromatase>  (726) 
1

>  <NR-AR>  (726) 
0

>  <NR-AR-LBD>  (726) 
1

>  <SR-MMP>  (726) 
1

>  <SR-p53>  (726) 
0

$$$$
NCGC00257022-01
     RDKit          2D

 55 62  0  0  1  0  0  0  0  0999 V2000
    8.6371   -5.6717    0.0000 O   0  0  0  0  0  0  0  0  0  0  0  0
    7.9174   -5.2687    0.0000 C   0  0  0  0  0  0  0  0  0  0  0  0
    7.1976   -5.6717    0.0000 C   0  0  0  0  0  0  0  0  0  0  0  0
    7.9174   -4.4194    0.0000 O   0  0  0  0  0  0  0  0  0  0  0  0
    6.4778   -5.2687    0.0000 C   0  0  0  0  0  0  0  0  0  0  0  0
    7.1976   -4.0162    0.0000 C   0  0  0  0  0  0  0  0  0  0  0  0
    6.4778   -4.4194    0.0000 C   0  0  0  0  0  0  0  0  0  0  0  0
    5.7581   -4.0162    0.0000 O   0  0  0  0  0  0  0  0  0  0  0  0
    5.0383   -4.4194    0.0000 C   0  0  0  0  0  0  0  0  0  0  0  0
    5.0383   -5.2687    0.0000 O   0  0  0  0  0  0  0  0  0  0  0  0
    4.3186   -4.0162    0.0000 C   0  0  0  0  0  0  0  0  0  0  0  0
    4.3186   -5.6717    0.0000 C   0  0  0  0  0  0  0  0  0  0  0  0
    3.5988   -4.4194    0.0000 C   0  0  0  0  0  0  0  0  0  0  0  0
    3.5988   -5.2687    0.0000 C   0  0  0  0  0  0  0  0  0  0  0  0
    2.8790   -5.6717    0.0000 O   0  0  0  0  0  0  0  0  0  0  0  0
    2.1593   -5.2687    0.0000 C   0  0  0  0  0  0  0  0  0  0  0  0
    1.4396   -5.6717    0.0000 C   0  0  0  0  0  0  0  0  0  0  0  0
    2.1593   -4.4194    0.0000 O   0  0  0  0  0  0  0  0  0  0  0  0
    0.7197   -5.2687    0.0000 C   0  0  0  0  0  0  0  0  0  0  0  0
    1.4396   -4.0162    0.0000 C   0  0  0  0  0  0  0  0  0  0  0  0
    0.7197   -4.4194    0.0000 C   0  0  0  0  0  0  0  0  0  0  0  0
    5.7581   -5.6717    0.0000 O   0  0  0  0  0  0  0  0  0  0  0  0
    2.8790   -4.0162    0.0000 O   0  0  0  0  0  0  0  0  0  0  0  0
    0.0000   -4.0162    0.0000 O   0  0  0  0  0  0  0  0  0  0  0  0
    0.0000   -5.6717    0.0000 O   0  0  0  0  0  0  0  0  0  0  0  0
    1.4396   -3.1957    0.0000 C   0  0  0  0  0  0  0  0  0  0  0  0
    4.3186   -6.5066    0.0000 C   0  0  0  0  0  0  0  0  0  0  0  0
    7.1976   -3.1957    0.0000 C   0  0  0  0  0  0  0  0  0  0  0  0
    9.3569   -5.2687    0.0000 C   0  0  0  0  0  0  0  0  0  0  0  0
    9.3569   -4.4194    0.0000 C   0  0  0  0  0  0  0  0  0  0  0  0
   10.0767   -5.6717    0.0000 C   0  0  0  0  0  0  0  0  0  0  0  0
   10.0767   -4.0162    0.0000 C   0  0  0  0  0  0  0  0  0  0  0  0
   10.7964   -5.2687    0.0000 C   0  0  0  0  0  0  0  0  0  0  0  0
   10.7964   -4.4338    0.0000 C   0  0  0  0  0  0  0  0  0  0  0  0
   11.5162   -5.6717    0.0000 C   0  0  0  0  0  0  0  0  0  0  0  0
   12.2360   -5.2687    0.0000 C   0  0  0  0  0  0  0  0  0  0  0  0
   11.5162   -4.0162    0.0000 C   0  0  0  0  0  0  0  0  0  0  0  0
   12.2360   -4.4194    0.0000 C   0  0  0  0  0  0  0  0  0  0  0  0
   11.5162   -3.1957    0.0000 C   0  0  0  0  0  0  0  0  0  0  0  0
   12.2360   -2.7639    0.0000 C   0  0  0  0  0  0  0  0  0  0  0  0
   12.9557   -4.0162    0.0000 C   0  0  0  0  0  0  0  0  0  0  0  0
   12.9557   -3.1957    0.0000 C   0  0  0  0  0  0  0  0  0  0  0  0
   14.3952   -4.0162    0.0000 C   0  0  0  0  0  0  0  0  0  0  0  0
   13.6755   -2.7639    0.0000 C   0  0  0  0  0  0  0  0  0  0  0  0
   14.3952   -3.1957    0.0000 C   0  0  0  0  0  0  0  0  0  0  0  0
   13.6755   -1.9434    0.0000 C   0  0  0  0  0  0  0  0  0  0  0  0
   12.9989   -1.4683    0.0000 C   0  0  0  0  0  0  0  0  0  0  0  0
   14.3377   -1.4683    0.0000 C   0  0  0  0  0  0  0  0  0  0  0  0
   13.2580   -0.6622    0.0000 C   0  0  0  0  0  0  0  0  0  0  0  0
   14.0929   -0.6622    0.0000 O   0  0  0  0  0  0  0  0  0  0  0  0
   10.7964   -3.5988    0.0000 C   0  0  0  0  0  0  0  0  0  0  0  0
   12.9557   -4.8656    0.0000 O   0  0  0  0  0  0  0  0  0  0  0  0
   12.9557   -2.3608    0.0000 C   0  0  0  0  0  0  0  0  0  0  0  0
   12.7542    0.0000    0.0000 O   0  0  0  0  0  0  0  0  0  0  0  0
   12.2360   -1.9434    0.0000 O   0  0  0  0  0  0  0  0  0  0  0  0
  2  1  1  1
 29  1  1  1
  2  3  1  0
  2  4  1  0
  3  5  1  0
  4  6  1  0
  5  7  1  0
  5 22  1  6
  6  7  1  0
  6 28  1  1
  7  8  1  6
  9  8  1  6
  9 10  1  0
  9 11  1  0
 10 12  1  0
 11 13  1  0
 12 14  1  0
 12 27  1  6
 13 14  1  0
 13 23  1  1
 14 15  1  1
 16 15  1  1
 16 17  1  0
 16 18  1  0
 17 19  1  0
 18 20  1  0
 19 21  1  0
 19 25  1  6
 20 21  1  0
 20 26  1  1
 21 24  1  6
 29 30  1  0
 29 31  1  0
 30 32  1  0
 33 31  1  6
 32 34  1  0
 33 35  1  0
 33 34  1  0
 34 37  1  0
 34 51  1  1
 35 36  1  0
 38 36  1  6
 37 39  1  1
 37 38  1  0
 38 41  1  0
 39 40  1  0
 40 42  1  0
 40 55  1  1
 41 43  1  0
 41 42  1  0
 41 52  1  1
 42 44  1  0
 42 53  1  1
 43 45  1  0
 44 45  1  1
 44 46  1  0
 46 47  2  0
 46 48  1  0
 47 49  1  0
 48 50  1  0
 49 50  1  0
 49 54  2  0
M  END
>  <Formula>  (727) 
C41H64O14

>  <FW>  (727) 
780.9385

>  <DSSTox_CID>  (727) 
2934

>  <NR-Aromatase>  (727) 
1

>  <NR-ER-LBD>  (727) 
0

>  <SR-HSE>  (727) 
0

>  <SR-p53>  (727) 
1

$$$$
NCGC00163473-01
     RDKit          2D

 41 46  0  0  1  0  0  0  0  0999 V2000
    7.1998   -3.1445    0.0000 C   0  0  0  0  0  0  0  0  0  0  0  0
    7.1998   -3.9607    0.0000 C   0  0  0  0  0  0  0  0  0  0  0  0
    5.7564   -3.9607    0.0000 C   0  0  0  0  0  0  0  0  0  0  0  0
    6.4867   -4.3645    0.0000 C   0  0  0  0  0  0  0  0  0  0  0  0
    5.0433   -4.3645    0.0000 C   0  0  0  0  0  0  0  0  0  0  0  0
    6.4867   -2.7321    0.0000 C   0  0  0  0  0  0  0  0  0  0  0  0
    5.7564   -3.1445    0.0000 C   0  0  0  0  0  0  0  0  0  0  0  0
    6.4867   -5.1893    0.0000 C   0  0  0  0  0  0  0  0  0  0  0  0
    5.0433   -5.1893    0.0000 C   0  0  0  0  0  0  0  0  0  0  0  0
    5.7564   -5.6275    0.0000 C   0  0  0  0  0  0  0  0  0  0  0  0
    7.1998   -2.2940    0.0000 C   0  0  0  0  0  0  0  0  0  0  0  0
    5.0433   -3.5483    0.0000 C   0  0  0  0  0  0  0  0  0  0  0  0
    4.3387   -3.9607    0.0000 C   0  0  0  0  0  0  0  0  0  0  0  0
    4.3387   -5.6275    0.0000 C   0  0  0  0  0  0  0  0  0  0  0  0
    3.6170   -4.3645    0.0000 C   0  0  0  0  0  0  0  0  0  0  0  0
    3.6170   -5.1893    0.0000 C   0  0  0  0  0  0  0  0  0  0  0  0
    7.1998   -4.8027    0.0000 O   0  0  0  0  0  0  0  0  0  0  0  0
    8.5915   -3.9607    0.0000 C   0  0  0  0  0  0  0  0  0  0  0  0
    7.8956   -2.7321    0.0000 C   0  0  0  0  0  0  0  0  0  0  0  0
    8.5915   -3.1445    0.0000 C   0  0  0  0  0  0  0  0  0  0  0  0
    7.8956   -1.9159    0.0000 C   0  0  0  0  0  0  0  0  0  0  0  0
    7.2255   -1.4348    0.0000 C   0  0  0  0  0  0  0  0  0  0  0  0
    8.5658   -1.4348    0.0000 C   0  0  0  0  0  0  0  0  0  0  0  0
    7.4919   -0.6530    0.0000 C   0  0  0  0  0  0  0  0  0  0  0  0
    8.2995   -0.6530    0.0000 O   0  0  0  0  0  0  0  0  0  0  0  0
    6.9935    0.0000    0.0000 O   0  0  0  0  0  0  0  0  0  0  0  0
    5.0347   -2.7321    0.0000 O   0  0  0  0  0  0  0  0  0  0  0  0
    4.3387   -3.1360    0.0000 O   0  0  0  0  0  0  0  0  0  0  0  0
    3.6256   -3.5483    0.0000 O   0  0  0  0  0  0  0  0  0  0  0  0
    2.8868   -5.6533    0.0000 O   0  0  0  0  0  0  0  0  0  0  0  0
    2.1651   -5.2322    0.0000 C   0  0  0  0  0  0  0  0  0  0  0  0
    1.4434   -5.6447    0.0000 C   0  0  0  0  0  0  0  0  0  0  0  0
    2.1651   -4.3903    0.0000 O   0  0  0  0  0  0  0  0  0  0  0  0
    0.7217   -5.2151    0.0000 C   0  0  0  0  0  0  0  0  0  0  0  0
    1.4520   -3.9607    0.0000 C   0  0  0  0  0  0  0  0  0  0  0  0
    0.7217   -4.3817    0.0000 C   0  0  0  0  0  0  0  0  0  0  0  0
    1.4520   -3.1360    0.0000 C   0  0  0  0  0  0  0  0  0  0  0  0
    0.0000   -3.9607    0.0000 O   0  0  0  0  0  0  0  0  0  0  0  0
    0.0000   -5.6361    0.0000 O   0  0  0  0  0  0  0  0  0  0  0  0
    1.4434   -6.4695    0.0000 O   0  0  0  0  0  0  0  0  0  0  0  0
    5.0433   -6.0227    0.0000 O   0  0  0  0  0  0  0  0  0  0  0  0
  1  6  1  0
  1 11  1  1
  1  2  1  0
  1 19  1  0
  2  4  1  0
  2 17  1  1
  2 18  1  0
  3  7  1  1
  3  5  1  0
  3  4  1  0
  4  8  1  6
  5  9  1  0
  5 12  1  1
  5 13  1  0
  6  7  1  0
  7 27  1  6
  8 10  1  0
  9 14  1  0
  9 10  1  0
  9 41  1  1
 12 28  1  0
 13 15  1  0
 13 29  1  1
 14 16  1  0
 15 16  1  0
 16 30  1  1
 18 20  1  0
 19 20  1  1
 19 21  1  0
 21 22  2  0
 21 23  1  0
 22 24  1  0
 23 25  1  0
 24 25  1  0
 24 26  2  0
 31 30  1  1
 31 32  1  0
 31 33  1  0
 32 34  1  0
 32 40  1  6
 33 35  1  0
 34 36  1  0
 34 39  1  6
 35 36  1  0
 35 37  1  6
 36 38  1  1
M  END
>  <Formula>  (728) 
C29H44O12

>  <FW>  (728) 
584.6525

>  <DSSTox_CID>  (728) 
23765

>  <NR-Aromatase>  (728) 
1

>  <NR-AhR>  (728) 
0

>  <SR-MMP>  (728) 
1

>  <SR-p53>  (728) 
0

$$$$
NCGC00259227-01
     RDKit          2D

 55 62  0  0  1  0  0  0  0  0999 V2000
    8.6371   -5.6717    0.0000 O   0  0  0  0  0  0  0  0  0  0  0  0
    7.9174   -5.2687    0.0000 C   0  0  0  0  0  0  0  0  0  0  0  0
    7.1976   -5.6717    0.0000 C   0  0  0  0  0  0  0  0  0  0  0  0
    7.9174   -4.4194    0.0000 O   0  0  0  0  0  0  0  0  0  0  0  0
    6.4778   -5.2687    0.0000 C   0  0  0  0  0  0  0  0  0  0  0  0
    7.1976   -4.0162    0.0000 C   0  0  0  0  0  0  0  0  0  0  0  0
    6.4778   -4.4194    0.0000 C   0  0  0  0  0  0  0  0  0  0  0  0
    5.7581   -4.0162    0.0000 O   0  0  0  0  0  0  0  0  0  0  0  0
    5.0383   -4.4194    0.0000 C   0  0  0  0  0  0  0  0  0  0  0  0
    5.0383   -5.2687    0.0000 O   0  0  0  0  0  0  0  0  0  0  0  0
    4.3186   -4.0162    0.0000 C   0  0  0  0  0  0  0  0  0  0  0  0
    4.3186   -5.6717    0.0000 C   0  0  0  0  0  0  0  0  0  0  0  0
    3.5988   -4.4194    0.0000 C   0  0  0  0  0  0  0  0  0  0  0  0
    3.5988   -5.2687    0.0000 C   0  0  0  0  0  0  0  0  0  0  0  0
    2.8790   -5.6717    0.0000 O   0  0  0  0  0  0  0  0  0  0  0  0
    2.1593   -5.2687    0.0000 C   0  0  0  0  0  0  0  0  0  0  0  0
    1.4396   -5.6717    0.0000 C   0  0  0  0  0  0  0  0  0  0  0  0
    2.1593   -4.4194    0.0000 O   0  0  0  0  0  0  0  0  0  0  0  0
    0.7197   -5.2687    0.0000 C   0  0  0  0  0  0  0  0  0  0  0  0
    1.4396   -4.0162    0.0000 C   0  0  0  0  0  0  0  0  0  0  0  0
    0.7197   -4.4194    0.0000 C   0  0  0  0  0  0  0  0  0  0  0  0
    5.7581   -5.6717    0.0000 O   0  0  0  0  0  0  0  0  0  0  0  0
    2.8790   -4.0162    0.0000 O   0  0  0  0  0  0  0  0  0  0  0  0
    0.0000   -4.0162    0.0000 O   0  0  0  0  0  0  0  0  0  0  0  0
    0.0000   -5.6717    0.0000 O   0  0  0  0  0  0  0  0  0  0  0  0
    1.4396   -3.1957    0.0000 C   0  0  0  0  0  0  0  0  0  0  0  0
    4.3186   -6.5066    0.0000 C   0  0  0  0  0  0  0  0  0  0  0  0
    7.1976   -3.1957    0.0000 C   0  0  0  0  0  0  0  0  0  0  0  0
    9.3569   -5.2687    0.0000 C   0  0  0  0  0  0  0  0  0  0  0  0
    9.3569   -4.4194    0.0000 C   0  0  0  0  0  0  0  0  0  0  0  0
   10.0767   -5.6717    0.0000 C   0  0  0  0  0  0  0  0  0  0  0  0
   10.0767   -4.0162    0.0000 C   0  0  0  0  0  0  0  0  0  0  0  0
   10.7964   -5.2687    0.0000 C   0  0  0  0  0  0  0  0  0  0  0  0
   10.7964   -4.4338    0.0000 C   0  0  0  0  0  0  0  0  0  0  0  0
   11.5162   -5.6717    0.0000 C   0  0  0  0  0  0  0  0  0  0  0  0
   12.2360   -5.2687    0.0000 C   0  0  0  0  0  0  0  0  0  0  0  0
   11.5162   -4.0162    0.0000 C   0  0  0  0  0  0  0  0  0  0  0  0
   12.2360   -4.4194    0.0000 C   0  0  0  0  0  0  0  0  0  0  0  0
   11.5162   -3.1957    0.0000 C   0  0  0  0  0  0  0  0  0  0  0  0
   12.2360   -2.7639    0.0000 C   0  0  0  0  0  0  0  0  0  0  0  0
   12.9557   -4.0162    0.0000 C   0  0  0  0  0  0  0  0  0  0  0  0
   12.9557   -3.1957    0.0000 C   0  0  0  0  0  0  0  0  0  0  0  0
   14.3952   -4.0162    0.0000 C   0  0  0  0  0  0  0  0  0  0  0  0
   13.6755   -2.7639    0.0000 C   0  0  0  0  0  0  0  0  0  0  0  0
   14.3952   -3.1957    0.0000 C   0  0  0  0  0  0  0  0  0  0  0  0
   13.6755   -1.9434    0.0000 C   0  0  0  0  0  0  0  0  0  0  0  0
   12.9989   -1.4683    0.0000 C   0  0  0  0  0  0  0  0  0  0  0  0
   14.3377   -1.4683    0.0000 C   0  0  0  0  0  0  0  0  0  0  0  0
   13.2580   -0.6622    0.0000 C   0  0  0  0  0  0  0  0  0  0  0  0
   14.0929   -0.6622    0.0000 O   0  0  0  0  0  0  0  0  0  0  0  0
   10.7964   -3.5988    0.0000 C   0  0  0  0  0  0  0  0  0  0  0  0
   12.9557   -4.8656    0.0000 O   0  0  0  0  0  0  0  0  0  0  0  0
   12.9557   -2.3608    0.0000 C   0  0  0  0  0  0  0  0  0  0  0  0
   12.7542    0.0000    0.0000 O   0  0  0  0  0  0  0  0  0  0  0  0
   12.2360   -1.9434    0.0000 O   0  0  0  0  0  0  0  0  0  0  0  0
  2  1  1  1
 29  1  1  1
  2  3  1  0
  2  4  1  0
  3  5  1  0
  4  6  1  0
  5  7  1  0
  5 22  1  6
  6  7  1  0
  6 28  1  1
  7  8  1  6
  9  8  1  6
  9 10  1  0
  9 11  1  0
 10 12  1  0
 11 13  1  0
 12 14  1  0
 12 27  1  6
 13 14  1  0
 13 23  1  1
 14 15  1  1
 16 15  1  1
 16 17  1  0
 16 18  1  0
 17 19  1  0
 18 20  1  0
 19 21  1  0
 19 25  1  6
 20 21  1  0
 20 26  1  1
 21 24  1  6
 29 30  1  0
 29 31  1  0
 30 32  1  0
 33 31  1  6
 32 34  1  0
 33 35  1  0
 33 34  1  0
 34 37  1  0
 34 51  1  1
 35 36  1  0
 38 36  1  6
 37 39  1  1
 37 38  1  0
 38 41  1  0
 39 40  1  0
 40 42  1  0
 40 55  1  1
 41 43  1  0
 41 42  1  0
 41 52  1  1
 42 44  1  0
 42 53  1  1
 43 45  1  0
 44 45  1  1
 44 46  1  0
 46 47  2  0
 46 48  1  0
 47 49  1  0
 48 50  1  0
 49 50  1  0
 49 54  2  0
M  END
>  <Formula>  (729) 
C41H64O14

>  <FW>  (729) 
780.9385

>  <DSSTox_CID>  (729) 
2934

>  <NR-Aromatase>  (729) 
1

>  <NR-ER-LBD>  (729) 
0

>  <NR-AhR>  (729) 
0

>  <SR-HSE>  (729) 
0

>  <SR-MMP>  (729) 
1

>  <SR-p53>  (729) 
0

$$$$
NCGC00015948-02
     RDKit          2D

 29 33  0  0  1  0  0  0  0  0999 V2000
    2.1409   -3.0677    0.0000 C   0  0  0  0  0  0  0  0  0  0  0  0
    2.1409   -3.8771    0.0000 C   0  0  0  0  0  0  0  0  0  0  0  0
    1.4294   -2.6434    0.0000 C   0  0  0  0  0  0  0  0  0  0  0  0
    1.4294   -4.3014    0.0000 C   0  0  0  0  0  0  0  0  0  0  0  0
    0.7310   -3.0677    0.0000 C   0  0  0  0  0  0  0  0  0  0  0  0
    0.7310   -3.8771    0.0000 C   0  0  0  0  0  0  0  0  0  0  0  0
    2.8719   -2.6434    0.0000 C   0  0  0  0  0  0  0  0  0  0  0  0
    3.5703   -3.0677    0.0000 C   0  0  0  0  0  0  0  0  0  0  0  0
    2.8719   -4.3014    0.0000 C   0  0  0  0  0  0  0  0  0  0  0  0
    3.5703   -3.8967    0.0000 C   0  0  0  0  0  0  0  0  0  0  0  0
    2.8719   -1.8276    0.0000 C   0  0  0  0  0  0  0  0  0  0  0  0
    3.5703   -1.4099    0.0000 C   0  0  0  0  0  0  0  0  0  0  0  0
    4.2883   -2.6434    0.0000 C   0  0  0  0  0  0  0  0  0  0  0  0
    4.2883   -1.8276    0.0000 C   0  0  0  0  0  0  0  0  0  0  0  0
    5.0650   -2.8980    0.0000 C   0  0  0  0  0  0  0  0  0  0  0  0
    5.5611   -2.2388    0.0000 C   0  0  0  0  0  0  0  0  0  0  0  0
    5.0650   -1.5665    0.0000 C   0  0  0  0  0  0  0  0  0  0  0  0
    4.5951   -0.9073    0.0000 C   0  0  0  0  0  0  0  0  0  0  0  0
    5.8548   -1.3119    0.0000 O   0  0  0  0  0  0  0  0  0  0  0  0
    5.0781   -0.2284    0.0000 C   0  0  0  0  0  0  0  0  0  0  0  0
    5.8548   -0.4961    0.0000 C   0  0  0  0  0  0  0  0  0  0  0  0
    4.2426   -0.9986    0.0000 C   0  0  0  0  0  0  0  0  0  0  0  0
    0.0000   -4.3014    0.0000 O   0  0  0  0  0  0  0  0  0  0  0  0
    6.5271    0.0000    0.0000 O   0  0  0  0  0  0  0  0  0  0  0  0
    2.1409   -2.2257    0.0000 C   0  0  0  0  0  0  0  0  0  0  0  0
    4.2883   -4.3014    0.0000 S   0  0  0  0  0  0  0  0  0  0  0  0
    4.2883   -5.1303    0.0000 C   0  0  0  0  0  0  0  0  0  0  0  0
    4.9998   -5.5415    0.0000 O   0  0  0  0  0  0  0  0  0  0  0  0
    3.5703   -5.5415    0.0000 C   0  0  0  0  0  0  0  0  0  0  0  0
  1  3  1  0
  1  7  1  0
  1  2  1  0
  1 25  1  1
  2  4  2  0
  2  9  1  0
  3  5  1  0
  4  6  1  0
  5  6  1  0
  6 23  2  0
  7 11  1  1
  7  8  1  0
  8 10  1  6
  8 13  1  0
  9 10  1  0
 10 26  1  6
 11 12  1  0
 12 14  1  0
 13 15  1  1
 13 14  1  0
 14 17  1  0
 14 22  1  1
 15 16  1  0
 17 16  1  6
 17 18  1  0
 17 19  1  0
 18 20  1  0
 19 21  1  0
 20 21  1  0
 21 24  2  0
 26 27  1  0
 27 28  2  0
 27 29  1  0
M  END
>  <Formula>  (730) 
C24H32O4S

>  <FW>  (730) 
416.5735

>  <DSSTox_CID>  (730) 
14186

>  <NR-Aromatase>  (730) 
1

>  <NR-AR>  (730) 
1

>  <NR-AR-LBD>  (730) 
1

>  <NR-ER>  (730) 
0

>  <NR-ER-LBD>  (730) 
0

>  <NR-AhR>  (730) 
0

>  <SR-ATAD5>  (730) 
0

$$$$
NCGC00255970-01
     RDKit          2D

 41 46  0  0  1  0  0  0  0  0999 V2000
    7.1998   -3.1445    0.0000 C   0  0  0  0  0  0  0  0  0  0  0  0
    7.1998   -3.9607    0.0000 C   0  0  0  0  0  0  0  0  0  0  0  0
    5.7564   -3.9607    0.0000 C   0  0  0  0  0  0  0  0  0  0  0  0
    6.4867   -4.3645    0.0000 C   0  0  0  0  0  0  0  0  0  0  0  0
    5.0433   -4.3645    0.0000 C   0  0  0  0  0  0  0  0  0  0  0  0
    6.4867   -2.7321    0.0000 C   0  0  0  0  0  0  0  0  0  0  0  0
    5.7564   -3.1445    0.0000 C   0  0  0  0  0  0  0  0  0  0  0  0
    6.4867   -5.1893    0.0000 C   0  0  0  0  0  0  0  0  0  0  0  0
    5.0433   -5.1893    0.0000 C   0  0  0  0  0  0  0  0  0  0  0  0
    5.7564   -5.6275    0.0000 C   0  0  0  0  0  0  0  0  0  0  0  0
    7.1998   -2.2940    0.0000 C   0  0  0  0  0  0  0  0  0  0  0  0
    5.0433   -3.5483    0.0000 C   0  0  0  0  0  0  0  0  0  0  0  0
    4.3387   -3.9607    0.0000 C   0  0  0  0  0  0  0  0  0  0  0  0
    4.3387   -5.6275    0.0000 C   0  0  0  0  0  0  0  0  0  0  0  0
    3.6170   -4.3645    0.0000 C   0  0  0  0  0  0  0  0  0  0  0  0
    3.6170   -5.1893    0.0000 C   0  0  0  0  0  0  0  0  0  0  0  0
    7.1998   -4.8027    0.0000 O   0  0  0  0  0  0  0  0  0  0  0  0
    8.5915   -3.9607    0.0000 C   0  0  0  0  0  0  0  0  0  0  0  0
    7.8956   -2.7321    0.0000 C   0  0  0  0  0  0  0  0  0  0  0  0
    8.5915   -3.1445    0.0000 C   0  0  0  0  0  0  0  0  0  0  0  0
    7.8956   -1.9159    0.0000 C   0  0  0  0  0  0  0  0  0  0  0  0
    7.2255   -1.4348    0.0000 C   0  0  0  0  0  0  0  0  0  0  0  0
    8.5658   -1.4348    0.0000 C   0  0  0  0  0  0  0  0  0  0  0  0
    7.4919   -0.6530    0.0000 C   0  0  0  0  0  0  0  0  0  0  0  0
    8.2995   -0.6530    0.0000 O   0  0  0  0  0  0  0  0  0  0  0  0
    6.9935    0.0000    0.0000 O   0  0  0  0  0  0  0  0  0  0  0  0
    5.0347   -2.7321    0.0000 O   0  0  0  0  0  0  0  0  0  0  0  0
    4.3387   -3.1360    0.0000 O   0  0  0  0  0  0  0  0  0  0  0  0
    3.6256   -3.5483    0.0000 O   0  0  0  0  0  0  0  0  0  0  0  0
    2.8868   -5.6533    0.0000 O   0  0  0  0  0  0  0  0  0  0  0  0
    2.1651   -5.2322    0.0000 C   0  0  0  0  0  0  0  0  0  0  0  0
    1.4434   -5.6447    0.0000 C   0  0  0  0  0  0  0  0  0  0  0  0
    2.1651   -4.3903    0.0000 O   0  0  0  0  0  0  0  0  0  0  0  0
    0.7217   -5.2151    0.0000 C   0  0  0  0  0  0  0  0  0  0  0  0
    1.4520   -3.9607    0.0000 C   0  0  0  0  0  0  0  0  0  0  0  0
    0.7217   -4.3817    0.0000 C   0  0  0  0  0  0  0  0  0  0  0  0
    1.4520   -3.1360    0.0000 C   0  0  0  0  0  0  0  0  0  0  0  0
    0.0000   -3.9607    0.0000 O   0  0  0  0  0  0  0  0  0  0  0  0
    0.0000   -5.6361    0.0000 O   0  0  0  0  0  0  0  0  0  0  0  0
    1.4434   -6.4695    0.0000 O   0  0  0  0  0  0  0  0  0  0  0  0
    5.0433   -6.0227    0.0000 O   0  0  0  0  0  0  0  0  0  0  0  0
  1  6  1  0
  1 11  1  1
  1  2  1  0
  1 19  1  0
  2  4  1  0
  2 17  1  1
  2 18  1  0
  3  7  1  1
  3  5  1  0
  3  4  1  0
  4  8  1  6
  5  9  1  0
  5 12  1  1
  5 13  1  0
  6  7  1  0
  7 27  1  6
  8 10  1  0
  9 14  1  0
  9 10  1  0
  9 41  1  1
 12 28  1  0
 13 15  1  0
 13 29  1  1
 14 16  1  0
 15 16  1  0
 16 30  1  1
 18 20  1  0
 19 20  1  1
 19 21  1  0
 21 22  2  0
 21 23  1  0
 22 24  1  0
 23 25  1  0
 24 25  1  0
 24 26  2  0
 31 30  1  1
 31 32  1  0
 31 33  1  0
 32 34  1  0
 32 40  1  6
 33 35  1  0
 34 36  1  0
 34 39  1  6
 35 36  1  0
 35 37  1  6
 36 38  1  1
M  END
>  <Formula>  (731) 
C29H44O12

>  <FW>  (731) 
584.6525

>  <DSSTox_CID>  (731) 
23765

>  <NR-Aromatase>  (731) 
1

>  <NR-AR-LBD>  (731) 
1

>  <NR-ER-LBD>  (731) 
0

>  <NR-AhR>  (731) 
0

>  <SR-HSE>  (731) 
0

>  <SR-MMP>  (731) 
1

>  <SR-p53>  (731) 
0

$$$$
NCGC00255229-01
     RDKit          2D

 29 33  0  0  1  0  0  0  0  0999 V2000
    2.1409   -3.0677    0.0000 C   0  0  0  0  0  0  0  0  0  0  0  0
    2.1409   -3.8771    0.0000 C   0  0  0  0  0  0  0  0  0  0  0  0
    1.4294   -2.6434    0.0000 C   0  0  0  0  0  0  0  0  0  0  0  0
    1.4294   -4.3014    0.0000 C   0  0  0  0  0  0  0  0  0  0  0  0
    0.7310   -3.0677    0.0000 C   0  0  0  0  0  0  0  0  0  0  0  0
    0.7310   -3.8771    0.0000 C   0  0  0  0  0  0  0  0  0  0  0  0
    2.8719   -2.6434    0.0000 C   0  0  0  0  0  0  0  0  0  0  0  0
    3.5703   -3.0677    0.0000 C   0  0  0  0  0  0  0  0  0  0  0  0
    2.8719   -4.3014    0.0000 C   0  0  0  0  0  0  0  0  0  0  0  0
    3.5703   -3.8967    0.0000 C   0  0  0  0  0  0  0  0  0  0  0  0
    2.8719   -1.8276    0.0000 C   0  0  0  0  0  0  0  0  0  0  0  0
    3.5703   -1.4099    0.0000 C   0  0  0  0  0  0  0  0  0  0  0  0
    4.2883   -2.6434    0.0000 C   0  0  0  0  0  0  0  0  0  0  0  0
    4.2883   -1.8276    0.0000 C   0  0  0  0  0  0  0  0  0  0  0  0
    5.0650   -2.8980    0.0000 C   0  0  0  0  0  0  0  0  0  0  0  0
    5.5611   -2.2388    0.0000 C   0  0  0  0  0  0  0  0  0  0  0  0
    5.0650   -1.5665    0.0000 C   0  0  0  0  0  0  0  0  0  0  0  0
    4.5951   -0.9073    0.0000 C   0  0  0  0  0  0  0  0  0  0  0  0
    5.8548   -1.3119    0.0000 O   0  0  0  0  0  0  0  0  0  0  0  0
    5.0781   -0.2284    0.0000 C   0  0  0  0  0  0  0  0  0  0  0  0
    5.8548   -0.4961    0.0000 C   0  0  0  0  0  0  0  0  0  0  0  0
    4.2426   -0.9986    0.0000 C   0  0  0  0  0  0  0  0  0  0  0  0
    0.0000   -4.3014    0.0000 O   0  0  0  0  0  0  0  0  0  0  0  0
    6.5271    0.0000    0.0000 O   0  0  0  0  0  0  0  0  0  0  0  0
    2.1409   -2.2257    0.0000 C   0  0  0  0  0  0  0  0  0  0  0  0
    4.2883   -4.3014    0.0000 S   0  0  0  0  0  0  0  0  0  0  0  0
    4.2883   -5.1303    0.0000 C   0  0  0  0  0  0  0  0  0  0  0  0
    4.9998   -5.5415    0.0000 O   0  0  0  0  0  0  0  0  0  0  0  0
    3.5703   -5.5415    0.0000 C   0  0  0  0  0  0  0  0  0  0  0  0
  1  3  1  0
  1  7  1  0
  1  2  1  0
  1 25  1  1
  2  4  2  0
  2  9  1  0
  3  5  1  0
  4  6  1  0
  5  6  1  0
  6 23  2  0
  7 11  1  1
  7  8  1  0
  8 10  1  6
  8 13  1  0
  9 10  1  0
 10 26  1  6
 11 12  1  0
 12 14  1  0
 13 15  1  1
 13 14  1  0
 14 17  1  0
 14 22  1  1
 15 16  1  0
 17 16  1  6
 17 18  1  0
 17 19  1  0
 18 20  1  0
 19 21  1  0
 20 21  1  0
 21 24  2  0
 26 27  1  0
 27 28  2  0
 27 29  1  0
M  END
>  <Formula>  (732) 
C24H32O4S

>  <FW>  (732) 
416.5735

>  <DSSTox_CID>  (732) 
14186

>  <NR-Aromatase>  (732) 
1

>  <NR-AR>  (732) 
1

>  <NR-AR-LBD>  (732) 
1

>  <NR-ER>  (732) 
0

>  <NR-ER-LBD>  (732) 
0

>  <NR-AhR>  (732) 
0

>  <SR-HSE>  (732) 
0

>  <SR-p53>  (732) 
1

$$$$
NCGC00090797-03
     RDKit          2D

 55 62  0  0  1  0  0  0  0  0999 V2000
    8.6371   -5.6717    0.0000 O   0  0  0  0  0  0  0  0  0  0  0  0
    7.9174   -5.2687    0.0000 C   0  0  0  0  0  0  0  0  0  0  0  0
    7.1976   -5.6717    0.0000 C   0  0  0  0  0  0  0  0  0  0  0  0
    7.9174   -4.4194    0.0000 O   0  0  0  0  0  0  0  0  0  0  0  0
    6.4778   -5.2687    0.0000 C   0  0  0  0  0  0  0  0  0  0  0  0
    7.1976   -4.0162    0.0000 C   0  0  0  0  0  0  0  0  0  0  0  0
    6.4778   -4.4194    0.0000 C   0  0  0  0  0  0  0  0  0  0  0  0
    5.7581   -4.0162    0.0000 O   0  0  0  0  0  0  0  0  0  0  0  0
    5.0383   -4.4194    0.0000 C   0  0  0  0  0  0  0  0  0  0  0  0
    5.0383   -5.2687    0.0000 O   0  0  0  0  0  0  0  0  0  0  0  0
    4.3186   -4.0162    0.0000 C   0  0  0  0  0  0  0  0  0  0  0  0
    4.3186   -5.6717    0.0000 C   0  0  0  0  0  0  0  0  0  0  0  0
    3.5988   -4.4194    0.0000 C   0  0  0  0  0  0  0  0  0  0  0  0
    3.5988   -5.2687    0.0000 C   0  0  0  0  0  0  0  0  0  0  0  0
    2.8790   -5.6717    0.0000 O   0  0  0  0  0  0  0  0  0  0  0  0
    2.1593   -5.2687    0.0000 C   0  0  0  0  0  0  0  0  0  0  0  0
    1.4396   -5.6717    0.0000 C   0  0  0  0  0  0  0  0  0  0  0  0
    2.1593   -4.4194    0.0000 O   0  0  0  0  0  0  0  0  0  0  0  0
    0.7197   -5.2687    0.0000 C   0  0  0  0  0  0  0  0  0  0  0  0
    1.4396   -4.0162    0.0000 C   0  0  0  0  0  0  0  0  0  0  0  0
    0.7197   -4.4194    0.0000 C   0  0  0  0  0  0  0  0  0  0  0  0
    5.7581   -5.6717    0.0000 O   0  0  0  0  0  0  0  0  0  0  0  0
    2.8790   -4.0162    0.0000 O   0  0  0  0  0  0  0  0  0  0  0  0
    0.0000   -4.0162    0.0000 O   0  0  0  0  0  0  0  0  0  0  0  0
    0.0000   -5.6717    0.0000 O   0  0  0  0  0  0  0  0  0  0  0  0
    1.4396   -3.1957    0.0000 C   0  0  0  0  0  0  0  0  0  0  0  0
    4.3186   -6.5066    0.0000 C   0  0  0  0  0  0  0  0  0  0  0  0
    7.1976   -3.1957    0.0000 C   0  0  0  0  0  0  0  0  0  0  0  0
    9.3569   -5.2687    0.0000 C   0  0  0  0  0  0  0  0  0  0  0  0
    9.3569   -4.4194    0.0000 C   0  0  0  0  0  0  0  0  0  0  0  0
   10.0767   -5.6717    0.0000 C   0  0  0  0  0  0  0  0  0  0  0  0
   10.0767   -4.0162    0.0000 C   0  0  0  0  0  0  0  0  0  0  0  0
   10.7964   -5.2687    0.0000 C   0  0  0  0  0  0  0  0  0  0  0  0
   10.7964   -4.4338    0.0000 C   0  0  0  0  0  0  0  0  0  0  0  0
   11.5162   -5.6717    0.0000 C   0  0  0  0  0  0  0  0  0  0  0  0
   12.2360   -5.2687    0.0000 C   0  0  0  0  0  0  0  0  0  0  0  0
   11.5162   -4.0162    0.0000 C   0  0  0  0  0  0  0  0  0  0  0  0
   12.2360   -4.4194    0.0000 C   0  0  0  0  0  0  0  0  0  0  0  0
   11.5162   -3.1957    0.0000 C   0  0  0  0  0  0  0  0  0  0  0  0
   12.2360   -2.7639    0.0000 C   0  0  0  0  0  0  0  0  0  0  0  0
   12.9557   -4.0162    0.0000 C   0  0  0  0  0  0  0  0  0  0  0  0
   12.9557   -3.1957    0.0000 C   0  0  0  0  0  0  0  0  0  0  0  0
   14.3952   -4.0162    0.0000 C   0  0  0  0  0  0  0  0  0  0  0  0
   13.6755   -2.7639    0.0000 C   0  0  0  0  0  0  0  0  0  0  0  0
   14.3952   -3.1957    0.0000 C   0  0  0  0  0  0  0  0  0  0  0  0
   13.6755   -1.9434    0.0000 C   0  0  0  0  0  0  0  0  0  0  0  0
   12.9989   -1.4683    0.0000 C   0  0  0  0  0  0  0  0  0  0  0  0
   14.3377   -1.4683    0.0000 C   0  0  0  0  0  0  0  0  0  0  0  0
   13.2580   -0.6622    0.0000 C   0  0  0  0  0  0  0  0  0  0  0  0
   14.0929   -0.6622    0.0000 O   0  0  0  0  0  0  0  0  0  0  0  0
   10.7964   -3.5988    0.0000 C   0  0  0  0  0  0  0  0  0  0  0  0
   12.9557   -4.8656    0.0000 O   0  0  0  0  0  0  0  0  0  0  0  0
   12.9557   -2.3608    0.0000 C   0  0  0  0  0  0  0  0  0  0  0  0
   12.7542    0.0000    0.0000 O   0  0  0  0  0  0  0  0  0  0  0  0
   12.2360   -1.9434    0.0000 O   0  0  0  0  0  0  0  0  0  0  0  0
  2  1  1  1
 29  1  1  1
  2  3  1  0
  2  4  1  0
  3  5  1  0
  4  6  1  0
  5  7  1  0
  5 22  1  6
  6  7  1  0
  6 28  1  1
  7  8  1  6
  9  8  1  6
  9 10  1  0
  9 11  1  0
 10 12  1  0
 11 13  1  0
 12 14  1  0
 12 27  1  6
 13 14  1  0
 13 23  1  1
 14 15  1  1
 16 15  1  1
 16 17  1  0
 16 18  1  0
 17 19  1  0
 18 20  1  0
 19 21  1  0
 19 25  1  6
 20 21  1  0
 20 26  1  1
 21 24  1  6
 29 30  1  0
 29 31  1  0
 30 32  1  0
 33 31  1  6
 32 34  1  0
 33 35  1  0
 33 34  1  0
 34 37  1  0
 34 51  1  1
 35 36  1  0
 38 36  1  6
 37 39  1  1
 37 38  1  0
 38 41  1  0
 39 40  1  0
 40 42  1  0
 40 55  1  1
 41 43  1  0
 41 42  1  0
 41 52  1  1
 42 44  1  0
 42 53  1  1
 43 45  1  0
 44 45  1  1
 44 46  1  0
 46 47  2  0
 46 48  1  0
 47 49  1  0
 48 50  1  0
 49 50  1  0
 49 54  2  0
M  END
>  <Formula>  (733) 
C41H64O14

>  <FW>  (733) 
780.9385

>  <DSSTox_CID>  (733) 
2934

>  <NR-AR-LBD>  (733) 
1

>  <NR-ER>  (733) 
1

>  <NR-ER-LBD>  (733) 
1

>  <NR-AhR>  (733) 
0

>  <SR-MMP>  (733) 
1

$$$$
NCGC00160534-01
     RDKit          2D

 29 32  0  0  1  0  0  0  0  0999 V2000
    4.2750   -1.6410    0.0000 C   0  0  0  0  0  0  0  0  0  0  0  0
    2.8665   -2.4791    0.0000 C   0  0  0  0  0  0  0  0  0  0  0  0
    5.0920   -1.3945    0.0000 C   0  0  0  0  0  0  0  0  0  0  0  0
    2.1763   -2.8594    0.0000 C   0  0  0  0  0  0  0  0  0  0  0  0
    3.5989   -2.8594    0.0000 C   0  0  0  0  0  0  0  0  0  0  0  0
    4.2750   -2.4580    0.0000 C   0  0  0  0  0  0  0  0  0  0  0  0
    2.1763   -3.6905    0.0000 C   0  0  0  0  0  0  0  0  0  0  0  0
    2.8735   -1.6551    0.0000 C   0  0  0  0  0  0  0  0  0  0  0  0
    3.5778   -1.2255    0.0000 C   0  0  0  0  0  0  0  0  0  0  0  0
    1.4438   -4.1201    0.0000 C   0  0  0  0  0  0  0  0  0  0  0  0
    5.5498   -2.0424    0.0000 C   0  0  0  0  0  0  0  0  0  0  0  0
    5.7822   -1.3945    0.0000 O   0  0  0  0  0  0  0  0  0  0  0  0
    5.0920   -2.6974    0.0000 C   0  0  0  0  0  0  0  0  0  0  0  0
    3.5989   -3.6905    0.0000 C   0  0  0  0  0  0  0  0  0  0  0  0
    1.4438   -2.4791    0.0000 C   0  0  0  0  0  0  0  0  0  0  0  0
    5.2892   -0.5916    0.0000 C   0  0  0  0  0  0  0  0  0  0  0  0
    6.2048   -2.0988    0.0000 C   0  0  0  0  0  0  0  0  0  0  0  0
    2.8665   -4.1201    0.0000 C   0  0  0  0  0  0  0  0  0  0  0  0
    0.7184   -3.6905    0.0000 C   0  0  0  0  0  0  0  0  0  0  0  0
    2.8665   -3.2820    0.0000 F   0  0  0  0  0  0  0  0  0  0  0  0
    7.0429   -2.0988    0.0000 O   0  0  0  0  0  0  0  0  0  0  0  0
    4.7117    0.0000    0.0000 O   0  0  0  0  0  0  0  0  0  0  0  0
    0.0000   -4.1201    0.0000 O   0  0  0  0  0  0  0  0  0  0  0  0
    4.2750   -0.8381    0.0000 C   0  0  0  0  0  0  0  0  0  0  0  0
    0.7184   -2.8594    0.0000 C   0  0  0  0  0  0  0  0  0  0  0  0
    2.1551   -1.2184    0.0000 O   0  0  0  0  0  0  0  0  0  0  0  0
    2.1763   -2.0424    0.0000 C   0  0  0  0  0  0  0  0  0  0  0  0
    5.7822   -2.7890    0.0000 C   0  0  0  0  0  0  0  0  0  0  0  0
    6.0991   -0.4015    0.0000 C   0  0  0  0  0  0  0  0  0  0  0  0
  1  3  1  0
  1  6  1  0
  1  9  1  0
  1 24  1  1
  2  8  1  0
  2  4  1  0
  2 20  1  6
  2  5  1  0
  3 11  1  0
  3 12  1  6
  3 16  1  0
  4  7  1  0
  4 15  1  0
  4 27  1  1
  5  6  1  0
  5 14  1  6
  6 13  1  1
  7 10  2  0
  7 18  1  0
  8  9  1  0
  8 26  1  1
 10 19  1  0
 11 13  1  0
 12 17  1  0
 14 18  1  0
 15 25  1  0
 16 22  2  0
 16 29  1  0
 17 21  2  0
 17 28  1  0
 19 25  1  0
 19 23  2  0
M  END
>  <Formula>  (734) 
C23H31FO5

>  <FW>  (734) 
406.4876

>  <DSSTox_CID>  (734) 
26210

>  <NR-AR>  (734) 
1

>  <NR-ER>  (734) 
1

>  <NR-PPAR-gamma>  (734) 
0

>  <SR-ATAD5>  (734) 
0

>  <SR-MMP>  (734) 
0

>  <SR-p53>  (734) 
0

$$$$
NCGC00094644-01
     RDKit          2D

 34 35  0  0  1  0  0  0  0  0999 V2000
    7.6496    0.0000    0.0000 Na  0  0  0  0  0 15  0  0  0  0  0  0
    8.6144   -1.9985    0.0000 Na  0  0  0  0  0 15  0  0  0  0  0  0
    4.2642   -2.6360    0.0000 C   0  0  0  0  0  0  0  0  0  0  0  0
    2.8686   -3.4630    0.0000 C   0  0  0  0  0  0  0  0  0  0  0  0
    2.1364   -3.8593    0.0000 C   0  0  0  0  0  0  0  0  0  0  0  0
    4.2642   -3.4630    0.0000 C   0  0  0  0  0  0  0  0  0  0  0  0
    3.5577   -3.8593    0.0000 C   0  0  0  0  0  0  0  0  0  0  0  0
    5.0739   -2.4034    0.0000 C   0  0  0  0  0  0  0  0  0  0  0  0
    2.1364   -4.6863    0.0000 C   0  0  0  0  0  0  0  0  0  0  0  0
    2.8686   -2.6360    0.0000 C   0  0  0  0  0  0  0  0  0  0  0  0
    3.5577   -2.2484    0.0000 C   0  0  0  0  0  0  0  0  0  0  0  0
    5.5391   -3.0495    0.0000 C   0  0  0  0  0  0  0  0  0  0  0  0
    1.4558   -3.4630    0.0000 C   0  0  0  0  0  0  0  0  0  0  0  0
    5.0566   -3.7128    0.0000 C   0  0  0  0  0  0  0  0  0  0  0  0
    1.4558   -5.1084    0.0000 C   0  0  0  0  0  0  0  0  0  0  0  0
    5.0739   -1.5678    0.0000 C   0  0  0  0  0  0  0  0  0  0  0  0
    3.5577   -4.6863    0.0000 C   0  0  0  0  0  0  0  0  0  0  0  0
    0.7322   -3.8593    0.0000 C   0  0  0  0  0  0  0  0  0  0  0  0
    0.7322   -4.6863    0.0000 C   0  0  0  0  0  0  0  0  0  0  0  0
    2.8686   -5.1084    0.0000 C   0  0  0  0  0  0  0  0  0  0  0  0
    2.8341   -4.1694    0.0000 F   0  0  0  0  0  0  0  0  0  0  0  0
    4.3589   -1.1457    0.0000 O   0  0  0  0  0  0  0  0  0  0  0  0
    0.0000   -5.1256    0.0000 O   0  0  0  0  0  0  0  0  0  0  0  0
    5.8664   -2.3776    0.0000 O   0  0  0  0  0  0  0  0  0  0  0  0
    4.2642   -1.8004    0.0000 C   0  0  0  0  0  0  0  0  0  0  0  0
    2.1364   -2.2225    0.0000 O   0  0  0  0  0  0  0  0  0  0  0  0
    2.1364   -3.0495    0.0000 C   0  0  0  0  0  0  0  0  0  0  0  0
    6.3574   -3.0495    0.0000 C   0  0  0  0  0  0  0  0  0  0  0  0
    5.7717   -1.1629    0.0000 C   0  0  0  0  0  0  0  0  0  0  0  0
    6.4953   -1.5850    0.0000 O   0  0  0  0  0  0  0  0  0  0  0  0
    7.2016   -1.1974    0.0000 P   0  0  0  0  0  0  0  0  0  0  0  0
    7.9166   -0.7753    0.0000 O   0  0  0  0  0  0  0  0  0  0  0  0
    6.7968   -0.4738    0.0000 O   0  0  0  0  0  0  0  0  0  0  0  0
    7.6065   -1.9038    0.0000 O   0  0  0  0  0  0  0  0  0  0  0  0
  3  6  1  0
  3  8  1  0
  3 11  1  0
  3 25  1  1
  4 10  1  0
  4  5  1  0
  4 21  1  6
  4  7  1  0
  5  9  1  0
  5 13  1  0
  5 27  1  1
  6  7  1  0
  6 14  1  1
  7 17  1  6
  8 12  1  0
  8 16  1  0
  8 24  1  6
  9 15  2  0
  9 20  1  0
 10 11  1  0
 10 26  1  1
 12 28  1  6
 12 14  1  0
 13 18  2  0
 15 19  1  0
 16 22  2  0
 16 29  1  0
 17 20  1  0
 18 19  1  0
 19 23  2  0
 29 30  1  0
 30 31  1  0
 31 32  2  0
 31 33  1  0
 31 34  1  0
M  CHG  4   1   1   2   1  33  -1  34  -1
M  END
>  <Formula>  (735) 
C22H28FNa2O8P

>  <FW>  (735) 
516.4046 (22.9892+22.9892+470.4262)

>  <DSSTox_CID>  (735) 
27429

>  <NR-AR>  (735) 
1

>  <NR-AR-LBD>  (735) 
1

>  <NR-ER>  (735) 
1

>  <NR-PPAR-gamma>  (735) 
0

>  <NR-AhR>  (735) 
0

>  <SR-MMP>  (735) 
0

>  <SR-p53>  (735) 
0

$$$$
NCGC00094799-01
     RDKit          2D

 28 31  0  0  1  0  0  0  0  0999 V2000
    4.2947   -1.5012    0.0000 C   0  0  0  0  0  0  0  0  0  0  0  0
    2.8849   -2.3170    0.0000 C   0  0  0  0  0  0  0  0  0  0  0  0
    5.0844   -1.2597    0.0000 C   0  0  0  0  0  0  0  0  0  0  0  0
    2.1669   -2.7348    0.0000 C   0  0  0  0  0  0  0  0  0  0  0  0
    4.2947   -2.3301    0.0000 C   0  0  0  0  0  0  0  0  0  0  0  0
    3.5833   -2.7348    0.0000 C   0  0  0  0  0  0  0  0  0  0  0  0
    2.1669   -3.5637    0.0000 C   0  0  0  0  0  0  0  0  0  0  0  0
    2.8849   -1.5012    0.0000 C   0  0  0  0  0  0  0  0  0  0  0  0
    5.5609   -1.8993    0.0000 C   0  0  0  0  0  0  0  0  0  0  0  0
    3.5702   -1.0835    0.0000 C   0  0  0  0  0  0  0  0  0  0  0  0
    1.4555   -2.3170    0.0000 C   0  0  0  0  0  0  0  0  0  0  0  0
    5.0844   -2.5585    0.0000 C   0  0  0  0  0  0  0  0  0  0  0  0
    1.4555   -3.9683    0.0000 C   0  0  0  0  0  0  0  0  0  0  0  0
    5.0844   -0.4308    0.0000 C   0  0  0  0  0  0  0  0  0  0  0  0
    3.5833   -3.5637    0.0000 C   0  0  0  0  0  0  0  0  0  0  0  0
    0.7441   -2.7348    0.0000 C   0  0  0  0  0  0  0  0  0  0  0  0
    0.7441   -3.5637    0.0000 C   0  0  0  0  0  0  0  0  0  0  0  0
    2.8849   -3.9683    0.0000 C   0  0  0  0  0  0  0  0  0  0  0  0
    2.8980   -3.1068    0.0000 F   0  0  0  0  0  0  0  0  0  0  0  0
    4.3600    0.0000    0.0000 O   0  0  0  0  0  0  0  0  0  0  0  0
    0.0000   -3.9553    0.0000 O   0  0  0  0  0  0  0  0  0  0  0  0
    4.2947   -0.6788    0.0000 C   0  0  0  0  0  0  0  0  0  0  0  0
    2.1539   -1.0835    0.0000 O   0  0  0  0  0  0  0  0  0  0  0  0
    6.3898   -1.8732    0.0000 O   0  0  0  0  0  0  0  0  0  0  0  0
    2.1669   -1.8993    0.0000 C   0  0  0  0  0  0  0  0  0  0  0  0
    5.8024    0.0000    0.0000 C   0  0  0  0  0  0  0  0  0  0  0  0
    6.5269   -0.3851    0.0000 O   0  0  0  0  0  0  0  0  0  0  0  0
    5.8024   -0.8485    0.0000 O   0  0  0  0  0  0  0  0  0  0  0  0
  1  3  1  0
  1  5  1  0
  1 10  1  0
  1 22  1  1
  2  8  1  0
  2  4  1  0
  2 19  1  6
  2  6  1  0
  3  9  1  0
  3 14  1  0
  3 28  1  6
  4  7  1  0
  4 11  1  0
  4 25  1  1
  5  6  1  0
  5 12  1  1
  6 15  1  6
  7 13  2  0
  7 18  1  0
  8 10  1  0
  8 23  1  1
  9 24  1  6
  9 12  1  0
 11 16  2  0
 13 17  1  0
 14 20  2  0
 14 26  1  0
 15 18  1  0
 16 17  1  0
 17 21  2  0
 26 27  1  0
M  END
>  <Formula>  (736) 
C21H27FO6

>  <FW>  (736) 
394.4339

>  <DSSTox_CID>  (736) 
20742

>  <NR-AR>  (736) 
1

>  <NR-AR-LBD>  (736) 
1

>  <NR-ER>  (736) 
1

>  <NR-PPAR-gamma>  (736) 
0

>  <NR-AhR>  (736) 
0

>  <SR-MMP>  (736) 
0

>  <SR-p53>  (736) 
0

$$$$
NCGC00167464-01
     RDKit          2D

 32 33  0  0  1  0  0  0  0  0999 V2000
    4.3092   -3.8713    0.0000 C   0  0  0  0  0  0  0  0  0  0  0  0
    2.1577   -5.1151    0.0000 C   0  0  0  0  0  0  0  0  0  0  0  0
    5.0961   -3.6238    0.0000 C   0  0  0  0  0  0  0  0  0  0  0  0
    3.5984   -5.1151    0.0000 C   0  0  0  0  0  0  0  0  0  0  0  0
    4.3092   -4.7090    0.0000 C   0  0  0  0  0  0  0  0  0  0  0  0
    2.8686   -4.6963    0.0000 C   0  0  0  0  0  0  0  0  0  0  0  0
    2.1577   -5.9402    0.0000 C   0  0  0  0  0  0  0  0  0  0  0  0
    3.5857   -3.4651    0.0000 C   0  0  0  0  0  0  0  0  0  0  0  0
    2.8686   -3.8713    0.0000 C   0  0  0  0  0  0  0  0  0  0  0  0
    1.4470   -6.3464    0.0000 C   0  0  0  0  0  0  0  0  0  0  0  0
    5.0961   -2.7987    0.0000 C   0  0  0  0  0  0  0  0  0  0  0  0
    5.5594   -4.2774    0.0000 C   0  0  0  0  0  0  0  0  0  0  0  0
    5.0961   -4.9438    0.0000 C   0  0  0  0  0  0  0  0  0  0  0  0
    3.5984   -5.9275    0.0000 C   0  0  0  0  0  0  0  0  0  0  0  0
    1.4470   -4.6963    0.0000 C   0  0  0  0  0  0  0  0  0  0  0  0
    2.8686   -6.3464    0.0000 C   0  0  0  0  0  0  0  0  0  0  0  0
    0.7362   -5.9275    0.0000 C   0  0  0  0  0  0  0  0  0  0  0  0
    5.8069   -2.3863    0.0000 O   0  0  0  0  0  0  0  0  0  0  0  0
    0.0000   -6.3273    0.0000 O   0  0  0  0  0  0  0  0  0  0  0  0
    5.9211   -3.6555    0.0000 O   0  0  0  0  0  0  0  0  0  0  0  0
    4.3092   -3.0462    0.0000 C   0  0  0  0  0  0  0  0  0  0  0  0
    0.7362   -5.1151    0.0000 C   0  0  0  0  0  0  0  0  0  0  0  0
    2.1451   -3.4588    0.0000 O   0  0  0  0  0  0  0  0  0  0  0  0
    2.1577   -4.2774    0.0000 C   0  0  0  0  0  0  0  0  0  0  0  0
    4.3917   -2.3926    0.0000 C   0  0  0  0  0  0  0  0  0  0  0  0
    4.3917   -1.5675    0.0000 O   0  0  0  0  0  0  0  0  0  0  0  0
    5.1151   -1.1043    0.0000 P   0  0  0  0  0  0  0  0  0  0  0  0
    5.8196   -0.6664    0.0000 O   0  0  0  0  0  0  0  0  0  0  0  0
    5.5531   -1.8087    0.0000 O   0  0  0  0  0  0  0  0  0  0  0  0
    4.6899   -0.3998    0.0000 O   0  0  0  0  0  0  0  0  0  0  0  0
    3.7571   -0.0888    0.0000 Na  0  0  0  0  0 15  0  0  0  0  0  0
    6.2068    0.0000    0.0000 Na  0  0  0  0  0 15  0  0  0  0  0  0
  1  3  1  0
  1  5  1  0
  1  8  1  0
  1 21  1  1
  2  6  1  0
  2  7  1  0
  2 15  1  0
  2 24  1  1
  3 11  1  0
  3 12  1  0
  3 20  1  6
  4  5  1  0
  4 14  1  6
  4  6  1  0
  5 13  1  1
  6  9  1  1
  7 10  2  0
  7 16  1  0
  8  9  1  0
  9 23  1  1
 10 17  1  0
 11 18  2  0
 11 25  1  0
 12 13  1  0
 14 16  1  0
 15 22  1  0
 17 22  1  0
 17 19  2  0
 25 26  1  0
 26 27  1  0
 27 28  1  0
 27 29  2  0
 27 30  1  0
M  CHG  4  28  -1  30  -1  31   1  32   1
M  END
>  <Formula>  (737) 
C21H29Na2O8P

>  <FW>  (737) 
486.4035 (440.4250+22.9892+22.9892)

>  <DSSTox_CID>  (737) 
26647

>  <NR-AR>  (737) 
1

>  <NR-AR-LBD>  (737) 
1

>  <NR-ER>  (737) 
1

>  <NR-PPAR-gamma>  (737) 
0

>  <NR-AhR>  (737) 
0

>  <SR-ATAD5>  (737) 
0

>  <SR-MMP>  (737) 
0

>  <SR-p53>  (737) 
0

$$$$
NCGC00094765-01
     RDKit          2D

 29 32  0  0  1  0  0  0  0  0999 V2000
    4.3225   -2.3208    0.0000 C   0  0  0  0  0  0  0  0  0  0  0  0
    2.1772   -3.5250    0.0000 C   0  0  0  0  0  0  0  0  0  0  0  0
    5.1041   -2.0655    0.0000 C   0  0  0  0  0  0  0  0  0  0  0  0
    3.5968   -3.5410    0.0000 C   0  0  0  0  0  0  0  0  0  0  0  0
    4.3225   -3.1342    0.0000 C   0  0  0  0  0  0  0  0  0  0  0  0
    2.8790   -3.1342    0.0000 C   0  0  0  0  0  0  0  0  0  0  0  0
    2.1772   -4.3783    0.0000 C   0  0  0  0  0  0  0  0  0  0  0  0
    3.5968   -1.9060    0.0000 C   0  0  0  0  0  0  0  0  0  0  0  0
    2.8790   -2.3208    0.0000 C   0  0  0  0  0  0  0  0  0  0  0  0
    1.4594   -3.1342    0.0000 C   0  0  0  0  0  0  0  0  0  0  0  0
    5.1041   -1.2441    0.0000 C   0  0  0  0  0  0  0  0  0  0  0  0
    1.4594   -4.7771    0.0000 C   0  0  0  0  0  0  0  0  0  0  0  0
    5.5746   -2.7036    0.0000 C   0  0  0  0  0  0  0  0  0  0  0  0
    5.1041   -3.3974    0.0000 C   0  0  0  0  0  0  0  0  0  0  0  0
    3.5968   -4.3704    0.0000 C   0  0  0  0  0  0  0  0  0  0  0  0
    0.7337   -3.5410    0.0000 C   0  0  0  0  0  0  0  0  0  0  0  0
    0.7337   -4.3704    0.0000 C   0  0  0  0  0  0  0  0  0  0  0  0
    2.8790   -4.7771    0.0000 C   0  0  0  0  0  0  0  0  0  0  0  0
    7.2494   -0.8055    0.0000 C   0  0  0  0  0  0  0  0  0  0  0  0
    5.8058   -0.8214    0.0000 C   0  0  0  0  0  0  0  0  0  0  0  0
    4.4023   -0.8374    0.0000 O   0  0  0  0  0  0  0  0  0  0  0  0
    6.5316   -1.2441    0.0000 O   0  0  0  0  0  0  0  0  0  0  0  0
    7.2494    0.0000    0.0000 O   0  0  0  0  0  0  0  0  0  0  0  0
    0.0000   -4.7611    0.0000 O   0  0  0  0  0  0  0  0  0  0  0  0
    5.8856   -1.8183    0.0000 O   0  0  0  0  0  0  0  0  0  0  0  0
    4.3225   -1.4754    0.0000 C   0  0  0  0  0  0  0  0  0  0  0  0
    2.1692   -1.8981    0.0000 O   0  0  0  0  0  0  0  0  0  0  0  0
    2.1772   -2.7195    0.0000 C   0  0  0  0  0  0  0  0  0  0  0  0
    7.9751   -1.2281    0.0000 C   0  0  0  0  0  0  0  0  0  0  0  0
  1  3  1  0
  1  5  1  0
  1  8  1  0
  1 26  1  1
  2  6  1  0
  2  7  1  0
  2 10  1  0
  2 28  1  1
  3 11  1  0
  3 13  1  0
  3 25  1  6
  4  5  1  0
  4 15  1  6
  4  6  1  0
  5 14  1  1
  6  9  1  1
  7 12  2  0
  7 18  1  0
  8  9  1  0
  9 27  1  1
 10 16  2  0
 11 20  1  0
 11 21  2  0
 12 17  1  0
 13 14  1  0
 15 18  1  0
 16 17  1  0
 17 24  2  0
 19 22  1  0
 19 23  2  0
 19 29  1  0
 20 22  1  0
M  END
>  <Formula>  (738) 
C23H30O6

>  <FW>  (738) 
402.4807

>  <DSSTox_CID>  (738) 
3502

>  <NR-AR>  (738) 
1

>  <NR-AR-LBD>  (738) 
1

>  <NR-ER>  (738) 
1

>  <NR-PPAR-gamma>  (738) 
0

>  <NR-AhR>  (738) 
0

>  <SR-ATAD5>  (738) 
0

>  <SR-MMP>  (738) 
0

>  <SR-p53>  (738) 
0

$$$$
NCGC00181081-01
     RDKit          2D

 27 30  0  0  1  0  0  0  0  0999 V2000
    4.3204   -1.6210    0.0000 C   0  0  0  0  0  0  0  0  0  0  0  0
    2.8803   -2.4449    0.0000 C   0  0  0  0  0  0  0  0  0  0  0  0
    2.1636   -2.8534    0.0000 C   0  0  0  0  0  0  0  0  0  0  0  0
    3.5970   -2.8601    0.0000 C   0  0  0  0  0  0  0  0  0  0  0  0
    5.1107   -1.3664    0.0000 C   0  0  0  0  0  0  0  0  0  0  0  0
    4.3204   -2.4516    0.0000 C   0  0  0  0  0  0  0  0  0  0  0  0
    2.1636   -3.6840    0.0000 C   0  0  0  0  0  0  0  0  0  0  0  0
    2.8803   -1.6210    0.0000 C   0  0  0  0  0  0  0  0  0  0  0  0
    3.5970   -1.2124    0.0000 C   0  0  0  0  0  0  0  0  0  0  0  0
    1.4535   -4.0926    0.0000 C   0  0  0  0  0  0  0  0  0  0  0  0
    5.3385   -0.5827    0.0000 C   0  0  0  0  0  0  0  0  0  0  0  0
    5.5863   -2.0161    0.0000 C   0  0  0  0  0  0  0  0  0  0  0  0
    5.1107   -2.6994    0.0000 C   0  0  0  0  0  0  0  0  0  0  0  0
    3.5970   -3.6840    0.0000 C   0  0  0  0  0  0  0  0  0  0  0  0
    1.4535   -2.4449    0.0000 C   0  0  0  0  0  0  0  0  0  0  0  0
    2.8803   -4.0926    0.0000 C   0  0  0  0  0  0  0  0  0  0  0  0
    0.7234   -3.6773    0.0000 C   0  0  0  0  0  0  0  0  0  0  0  0
    2.8601   -3.2084    0.0000 F   0  0  0  0  0  0  0  0  0  0  0  0
    4.7624    0.0000    0.0000 O   0  0  0  0  0  0  0  0  0  0  0  0
    0.0000   -4.0859    0.0000 O   0  0  0  0  0  0  0  0  0  0  0  0
    5.9213   -1.4602    0.0000 O   0  0  0  0  0  0  0  0  0  0  0  0
    4.3204   -0.7904    0.0000 C   0  0  0  0  0  0  0  0  0  0  0  0
    0.7234   -2.8601    0.0000 C   0  0  0  0  0  0  0  0  0  0  0  0
    2.1434   -1.1990    0.0000 O   0  0  0  0  0  0  0  0  0  0  0  0
    2.1636   -2.0161    0.0000 C   0  0  0  0  0  0  0  0  0  0  0  0
    6.1088   -0.3751    0.0000 C   0  0  0  0  0  0  0  0  0  0  0  0
    6.6983   -0.9646    0.0000 O   0  0  0  0  0  0  0  0  0  0  0  0
  1  5  1  0
  1  6  1  0
  1  9  1  0
  1 22  1  1
  2  8  1  0
  2  3  1  0
  2 18  1  6
  2  4  1  0
  3  7  1  0
  3 15  1  0
  3 25  1  1
  4  6  1  0
  4 14  1  6
  5 11  1  0
  5 12  1  0
  5 21  1  6
  6 13  1  1
  7 10  2  0
  7 16  1  0
  8  9  1  0
  8 24  1  1
 10 17  1  0
 11 19  2  0
 11 26  1  0
 12 13  1  0
 14 16  1  0
 15 23  1  0
 17 23  1  0
 17 20  2  0
 26 27  1  0
M  END
>  <Formula>  (739) 
C21H29FO5

>  <FW>  (739) 
380.4504

>  <DSSTox_CID>  (739) 
3061

>  <NR-AR>  (739) 
1

>  <NR-AR-LBD>  (739) 
1

>  <NR-ER>  (739) 
1

>  <NR-PPAR-gamma>  (739) 
0

>  <NR-AhR>  (739) 
0

>  <SR-ATAD5>  (739) 
0

>  <SR-MMP>  (739) 
0

>  <SR-p53>  (739) 
0

$$$$
NCGC00167983-01
     RDKit          2D

 30 34  0  0  1  0  0  0  0  0999 V2000
    5.0865   -2.0503    0.0000 C   0  0  0  0  0  0  0  0  0  0  0  0
    4.3007   -2.2933    0.0000 C   0  0  0  0  0  0  0  0  0  0  0  0
    4.3007   -3.1219    0.0000 C   0  0  0  0  0  0  0  0  0  0  0  0
    2.1575   -3.5363    0.0000 C   0  0  0  0  0  0  0  0  0  0  0  0
    3.5791   -3.5363    0.0000 C   0  0  0  0  0  0  0  0  0  0  0  0
    5.5366   -2.7004    0.0000 C   0  0  0  0  0  0  0  0  0  0  0  0
    2.8647   -3.1219    0.0000 C   0  0  0  0  0  0  0  0  0  0  0  0
    2.1575   -4.3650    0.0000 C   0  0  0  0  0  0  0  0  0  0  0  0
    3.5791   -1.8860    0.0000 C   0  0  0  0  0  0  0  0  0  0  0  0
    2.8647   -2.2933    0.0000 C   0  0  0  0  0  0  0  0  0  0  0  0
    1.4360   -3.1219    0.0000 C   0  0  0  0  0  0  0  0  0  0  0  0
    5.0865   -3.3791    0.0000 C   0  0  0  0  0  0  0  0  0  0  0  0
    1.4360   -4.7650    0.0000 C   0  0  0  0  0  0  0  0  0  0  0  0
    3.5791   -4.3650    0.0000 C   0  0  0  0  0  0  0  0  0  0  0  0
    0.7216   -3.5363    0.0000 C   0  0  0  0  0  0  0  0  0  0  0  0
    0.7216   -4.3650    0.0000 C   0  0  0  0  0  0  0  0  0  0  0  0
    2.8647   -4.7650    0.0000 C   0  0  0  0  0  0  0  0  0  0  0  0
    0.0000   -4.7865    0.0000 O   0  0  0  0  0  0  0  0  0  0  0  0
    4.3007   -1.4717    0.0000 C   0  0  0  0  0  0  0  0  0  0  0  0
    2.1575   -1.8646    0.0000 O   0  0  0  0  0  0  0  0  0  0  0  0
    2.1575   -2.7004    0.0000 C   0  0  0  0  0  0  0  0  0  0  0  0
    5.5652   -1.4073    0.0000 O   0  0  0  0  0  0  0  0  0  0  0  0
    6.3224   -1.6717    0.0000 C   0  0  0  0  0  0  0  0  0  0  0  0
    6.2939   -2.4647    0.0000 O   0  0  0  0  0  0  0  0  0  0  0  0
    5.0865   -1.2216    0.0000 C   0  0  0  0  0  0  0  0  0  0  0  0
    5.7866   -0.8144    0.0000 C   0  0  0  0  0  0  0  0  0  0  0  0
    4.3721   -0.8287    0.0000 O   0  0  0  0  0  0  0  0  0  0  0  0
    5.7866    0.0000    0.0000 O   0  0  0  0  0  0  0  0  0  0  0  0
    7.1440   -1.6717    0.0000 C   0  0  0  0  0  0  0  0  0  0  0  0
    6.8939   -1.0930    0.0000 C   0  0  0  0  0  0  0  0  0  0  0  0
  1  2  1  0
  1 22  1  0
  1  6  1  0
  1 25  1  1
  2  3  1  0
  2  9  1  0
  2 19  1  1
  3  5  1  0
  3 12  1  1
  4  7  1  0
  4  8  1  0
  4 11  1  0
  4 21  1  1
  5 14  1  6
  5  7  1  0
  6 12  1  6
  6 24  1  0
  7 10  1  1
  8 13  2  0
  8 17  1  0
  9 10  1  0
 10 20  1  1
 11 15  2  0
 13 16  1  0
 14 17  1  0
 15 16  1  0
 16 18  2  0
 22 23  1  0
 23 24  1  0
 23 29  1  0
 23 30  1  0
 25 26  1  0
 25 27  2  0
 26 28  1  0
M  END
>  <Formula>  (740) 
C24H32O6

>  <FW>  (740) 
416.5073

>  <DSSTox_CID>  (740) 
26756

>  <NR-AR>  (740) 
1

>  <NR-AR-LBD>  (740) 
0

>  <NR-ER>  (740) 
1

>  <NR-ER-LBD>  (740) 
0

>  <NR-PPAR-gamma>  (740) 
0

>  <NR-AhR>  (740) 
0

>  <SR-MMP>  (740) 
0

>  <SR-p53>  (740) 
0

$$$$
NCGC00159503-02
     RDKit          2D

 30 33  0  0  1  0  0  0  0  0999 V2000
    2.1858   -3.3766    0.0000 C   0  0  0  0  0  0  0  0  0  0  0  0
    4.3324   -2.1153    0.0000 C   0  0  0  0  0  0  0  0  0  0  0  0
    2.1858   -4.1914    0.0000 C   0  0  0  0  0  0  0  0  0  0  0  0
    5.1237   -1.8724    0.0000 C   0  0  0  0  0  0  0  0  0  0  0  0
    2.9066   -2.9614    0.0000 C   0  0  0  0  0  0  0  0  0  0  0  0
    3.6194   -3.3766    0.0000 C   0  0  0  0  0  0  0  0  0  0  0  0
    4.3324   -2.9692    0.0000 C   0  0  0  0  0  0  0  0  0  0  0  0
    1.4572   -2.9614    0.0000 C   0  0  0  0  0  0  0  0  0  0  0  0
    3.6194   -1.7235    0.0000 C   0  0  0  0  0  0  0  0  0  0  0  0
    2.9066   -2.1153    0.0000 C   0  0  0  0  0  0  0  0  0  0  0  0
    3.6194   -4.1757    0.0000 C   0  0  0  0  0  0  0  0  0  0  0  0
    1.4572   -4.5910    0.0000 C   0  0  0  0  0  0  0  0  0  0  0  0
    2.9066   -4.5910    0.0000 C   0  0  0  0  0  0  0  0  0  0  0  0
    5.1315   -1.0498    0.0000 C   0  0  0  0  0  0  0  0  0  0  0  0
    5.5859   -2.5305    0.0000 C   0  0  0  0  0  0  0  0  0  0  0  0
    5.1237   -3.2278    0.0000 C   0  0  0  0  0  0  0  0  0  0  0  0
    0.7443   -3.3766    0.0000 C   0  0  0  0  0  0  0  0  0  0  0  0
    0.7443   -4.1757    0.0000 C   0  0  0  0  0  0  0  0  0  0  0  0
    7.2232   -0.7521    0.0000 C   0  0  0  0  0  0  0  0  0  0  0  0
    5.8523   -0.6424    0.0000 C   0  0  0  0  0  0  0  0  0  0  0  0
    4.4186   -0.6032    0.0000 O   0  0  0  0  0  0  0  0  0  0  0  0
    6.5417   -1.0890    0.0000 O   0  0  0  0  0  0  0  0  0  0  0  0
    7.2232    0.0000    0.0000 O   0  0  0  0  0  0  0  0  0  0  0  0
    0.0000   -4.5831    0.0000 O   0  0  0  0  0  0  0  0  0  0  0  0
    5.9541   -1.8803    0.0000 O   0  0  0  0  0  0  0  0  0  0  0  0
    2.1858   -2.5226    0.0000 C   0  0  0  0  0  0  0  0  0  0  0  0
    4.3324   -1.3083    0.0000 C   0  0  0  0  0  0  0  0  0  0  0  0
    2.1701   -1.7157    0.0000 O   0  0  0  0  0  0  0  0  0  0  0  0
    2.9066   -5.4214    0.0000 C   0  0  0  0  0  0  0  0  0  0  0  0
    7.8344   -1.1517    0.0000 C   0  0  0  0  0  0  0  0  0  0  0  0
  1  3  1  0
  1  5  1  0
  1  8  1  0
  1 26  1  1
  2  9  1  0
  2  4  1  0
  2 27  1  1
  2  7  1  0
  3 12  2  0
  3 13  1  0
  4 14  1  0
  4 25  1  6
  4 15  1  0
  5  6  1  0
  5 10  1  1
  6  7  1  0
  6 11  1  6
  7 16  1  1
  8 17  2  0
  9 10  1  0
 10 28  1  1
 11 13  1  0
 12 18  1  0
 13 29  1  6
 14 20  1  0
 14 21  2  0
 15 16  1  0
 17 18  1  0
 18 24  2  0
 19 22  1  0
 19 23  2  0
 19 30  1  0
 20 22  1  0
M  END
>  <Formula>  (741) 
C24H32O6

>  <FW>  (741) 
416.5073

>  <DSSTox_CID>  (741) 
3302

>  <NR-AR>  (741) 
1

>  <NR-AR-LBD>  (741) 
1

>  <NR-ER>  (741) 
1

>  <NR-ER-LBD>  (741) 
0

>  <NR-PPAR-gamma>  (741) 
0

>  <NR-AhR>  (741) 
0

>  <SR-ATAD5>  (741) 
0

>  <SR-MMP>  (741) 
0

>  <SR-p53>  (741) 
0

$$$$
NCGC00181018-01
     RDKit          2D

 28 31  0  0  1  0  0  0  0  0999 V2000
    2.8914   -3.5906    0.0000 C   0  0  0  0  0  0  0  0  0  0  0  0
    4.3371   -2.7892    0.0000 C   0  0  0  0  0  0  0  0  0  0  0  0
    2.1685   -3.9835    0.0000 C   0  0  0  0  0  0  0  0  0  0  0  0
    5.1149   -2.5378    0.0000 C   0  0  0  0  0  0  0  0  0  0  0  0
    2.1685   -4.8085    0.0000 C   0  0  0  0  0  0  0  0  0  0  0  0
    4.3371   -3.6142    0.0000 C   0  0  0  0  0  0  0  0  0  0  0  0
    3.6064   -4.0071    0.0000 C   0  0  0  0  0  0  0  0  0  0  0  0
    2.8914   -2.7657    0.0000 C   0  0  0  0  0  0  0  0  0  0  0  0
    3.6064   -2.3571    0.0000 C   0  0  0  0  0  0  0  0  0  0  0  0
    5.4213   -1.7678    0.0000 C   0  0  0  0  0  0  0  0  0  0  0  0
    1.4535   -5.2092    0.0000 C   0  0  0  0  0  0  0  0  0  0  0  0
    5.6099   -3.2135    0.0000 C   0  0  0  0  0  0  0  0  0  0  0  0
    5.1306   -3.8814    0.0000 C   0  0  0  0  0  0  0  0  0  0  0  0
    1.4535   -3.5592    0.0000 C   0  0  0  0  0  0  0  0  0  0  0  0
    3.6064   -4.8321    0.0000 C   0  0  0  0  0  0  0  0  0  0  0  0
    2.8914   -5.2328    0.0000 C   0  0  0  0  0  0  0  0  0  0  0  0
    0.7228   -4.7849    0.0000 C   0  0  0  0  0  0  0  0  0  0  0  0
    7.3385   -0.7778    0.0000 C   0  0  0  0  0  0  0  0  0  0  0  0
    6.2228   -1.6500    0.0000 C   0  0  0  0  0  0  0  0  0  0  0  0
    4.9106   -1.1235    0.0000 O   0  0  0  0  0  0  0  0  0  0  0  0
    6.5213   -0.8878    0.0000 O   0  0  0  0  0  0  0  0  0  0  0  0
    7.6370    0.0000    0.0000 O   0  0  0  0  0  0  0  0  0  0  0  0
    0.0000   -5.1856    0.0000 O   0  0  0  0  0  0  0  0  0  0  0  0
    6.1992   -2.5378    0.0000 O   0  0  0  0  0  0  0  0  0  0  0  0
    0.7385   -3.9599    0.0000 C   0  0  0  0  0  0  0  0  0  0  0  0
    4.2978   -1.9485    0.0000 C   0  0  0  0  0  0  0  0  0  0  0  0
    2.1685   -3.1664    0.0000 C   0  0  0  0  0  0  0  0  0  0  0  0
    7.8570   -1.4222    0.0000 C   0  0  0  0  0  0  0  0  0  0  0  0
  1  3  1  0
  1  7  1  0
  1  8  2  0
  2  4  1  0
  2 26  1  1
  2  6  1  0
  2  9  1  0
  3  5  1  0
  3 14  1  0
  3 27  1  1
  4 10  1  0
  4 24  1  6
  4 12  1  0
  5 11  2  0
  5 16  1  0
  6  7  1  0
  6 13  1  1
  7 15  1  6
  8  9  1  0
 10 19  1  0
 10 20  2  0
 11 17  1  0
 12 13  1  0
 14 25  1  0
 15 16  1  0
 17 25  1  0
 17 23  2  0
 18 21  1  0
 18 22  2  0
 18 28  1  0
 19 21  1  0
M  END
>  <Formula>  (742) 
C23H30O5

>  <FW>  (742) 
386.4813

>  <DSSTox_CID>  (742) 
26805

>  <NR-Aromatase>  (742) 
0

>  <NR-AR>  (742) 
1

>  <NR-AR-LBD>  (742) 
1

>  <NR-ER>  (742) 
1

>  <NR-ER-LBD>  (742) 
0

>  <NR-PPAR-gamma>  (742) 
0

>  <NR-AhR>  (742) 
0

>  <SR-ATAD5>  (742) 
0

>  <SR-MMP>  (742) 
0

>  <SR-p53>  (742) 
0

$$$$
NCGC00160609-01
     RDKit          2D

 59 64  0  0  1  0  0  0  0  0999 V2000
    7.9640   -3.0466    0.0000 C   0  0  0  0  0  0  0  0  0  0  0  0
    7.2691   -4.3080    0.0000 C   0  0  0  0  0  0  0  0  0  0  0  0
    7.9640   -3.8911    0.0000 C   0  0  0  0  0  0  0  0  0  0  0  0
    5.8153   -4.3080    0.0000 C   0  0  0  0  0  0  0  0  0  0  0  0
    6.5636   -3.8911    0.0000 C   0  0  0  0  0  0  0  0  0  0  0  0
    7.2691   -2.6190    0.0000 C   0  0  0  0  0  0  0  0  0  0  0  0
    6.5636   -3.0466    0.0000 C   0  0  0  0  0  0  0  0  0  0  0  0
    5.8153   -5.1526    0.0000 C   0  0  0  0  0  0  0  0  0  0  0  0
    8.7229   -2.6190    0.0000 C   0  0  0  0  0  0  0  0  0  0  0  0
    5.1098   -5.5267    0.0000 C   0  0  0  0  0  0  0  0  0  0  0  0
    9.4178   -1.4004    0.0000 C   0  0  0  0  0  0  0  0  0  0  0  0
    8.7229   -1.8280    0.0000 C   0  0  0  0  0  0  0  0  0  0  0  0
    9.4178   -3.0466    0.0000 C   0  0  0  0  0  0  0  0  0  0  0  0
    2.9076   -6.0505    0.0000 O   0  0  0  0  0  0  0  0  0  0  0  0
    4.4149   -5.1526    0.0000 C   0  0  0  0  0  0  0  0  0  0  0  0
    7.2691   -5.1526    0.0000 C   0  0  0  0  0  0  0  0  0  0  0  0
    9.8881   -0.6521    0.0000 C   0  0  0  0  0  0  0  0  0  0  0  0
    5.1098   -3.8911    0.0000 C   0  0  0  0  0  0  0  0  0  0  0  0
    8.7229   -4.3080    0.0000 C   0  0  0  0  0  0  0  0  0  0  0  0
    6.5636   -5.5267    0.0000 C   0  0  0  0  0  0  0  0  0  0  0  0
    5.8153   -2.6725    0.0000 O   0  0  0  0  0  0  0  0  0  0  0  0
    9.4178   -3.8911    0.0000 C   0  0  0  0  0  0  0  0  0  0  0  0
    4.4149   -4.3080    0.0000 C   0  0  0  0  0  0  0  0  0  0  0  0
   10.1233   -1.8280    0.0000 C   0  0  0  0  0  0  0  0  0  0  0  0
   10.1233   -2.6190    0.0000 C   0  0  0  0  0  0  0  0  0  0  0  0
    9.5140    0.0000    0.0000 O   0  0  0  0  0  0  0  0  0  0  0  0
    7.2691   -3.5597    0.0000 C   0  0  0  0  0  0  0  0  0  0  0  0
    5.8153   -3.4635    0.0000 C   0  0  0  0  0  0  0  0  0  0  0  0
    8.0174   -4.6287    0.0000 C   0  0  0  0  0  0  0  0  0  0  0  0
   10.6899   -0.6521    0.0000 O   0  0  0  0  0  0  0  0  0  0  0  0
    4.8318   -6.2750    0.0000 C   0  0  0  0  0  0  0  0  0  0  0  0
    5.3984   -6.2322    0.0000 C   0  0  0  0  0  0  0  0  0  0  0  0
    8.9047   -0.6521    0.0000 C   0  0  0  0  0  0  0  0  0  0  0  0
    9.4178   -2.2021    0.0000 C   0  0  0  0  0  0  0  0  0  0  0  0
    2.9076   -6.8415    0.0000 C   0  0  0  0  0  0  0  0  0  0  0  0
    2.2021   -7.2691    0.0000 C   0  0  0  0  0  0  0  0  0  0  0  0
    3.6559   -7.2691    0.0000 O   0  0  0  0  0  0  0  0  0  0  0  0
    2.2021   -8.1137    0.0000 C   0  0  0  0  0  0  0  0  0  0  0  0
    3.6559   -8.1137    0.0000 C   0  0  0  0  0  0  0  0  0  0  0  0
    2.9076   -8.5305    0.0000 C   0  0  0  0  0  0  0  0  0  0  0  0
    1.4539   -8.5305    0.0000 O   0  0  0  0  0  0  0  0  0  0  0  0
    2.9076   -9.3643    0.0000 O   0  0  0  0  0  0  0  0  0  0  0  0
    4.3615   -8.5305    0.0000 C   0  0  0  0  0  0  0  0  0  0  0  0
    4.3615   -9.3643    0.0000 O   0  0  0  0  0  0  0  0  0  0  0  0
    5.1098   -8.1137    0.0000 O   0  0  0  0  0  0  0  0  0  0  0  0
    1.4539   -6.8415    0.0000 O   0  0  0  0  0  0  0  0  0  0  0  0
    1.4539   -5.9970    0.0000 C   0  0  0  0  0  0  0  0  0  0  0  0
    0.7162   -5.5801    0.0000 C   0  0  0  0  0  0  0  0  0  0  0  0
    2.1594   -5.5801    0.0000 O   0  0  0  0  0  0  0  0  0  0  0  0
    0.7162   -4.7356    0.0000 C   0  0  0  0  0  0  0  0  0  0  0  0
    2.1594   -4.7356    0.0000 C   0  0  0  0  0  0  0  0  0  0  0  0
    1.4539   -4.3080    0.0000 C   0  0  0  0  0  0  0  0  0  0  0  0
    0.0000   -5.9970    0.0000 O   0  0  0  0  0  0  0  0  0  0  0  0
    0.0000   -4.3080    0.0000 O   0  0  0  0  0  0  0  0  0  0  0  0
    1.4539   -3.4635    0.0000 O   0  0  0  0  0  0  0  0  0  0  0  0
    2.9076   -4.3080    0.0000 C   0  0  0  0  0  0  0  0  0  0  0  0
    2.9076   -3.4635    0.0000 O   0  0  0  0  0  0  0  0  0  0  0  0
    3.6559   -4.7356    0.0000 O   0  0  0  0  0  0  0  0  0  0  0  0
    5.2808   -9.6637    0.0000 Na  0  0  0  0  0 15  0  0  0  0  0  0
  1  3  1  0
  1  6  2  0
  1  9  1  0
  2  3  1  0
  2 16  1  0
  2 27  1  1
  2  5  1  0
  3 19  1  0
  3 29  1  6
  4  5  1  0
  4  8  1  0
  4 18  1  0
  4 28  1  1
  5  7  1  1
  6  7  1  0
  7 21  2  0
  8 10  1  0
  8 20  1  0
  9 12  1  6
  9 13  1  0
 10 31  1  0
 10 32  1  0
 10 15  1  0
 11 12  1  0
 11 17  1  0
 11 33  1  6
 11 24  1  0
 13 22  1  0
 13 25  1  0
 13 34  1  1
 15 14  1  1
 35 14  1  1
 15 23  1  0
 16 20  1  0
 17 26  2  0
 17 30  1  0
 18 23  1  0
 19 22  1  0
 24 25  1  0
 35 36  1  0
 35 37  1  0
 36 38  1  0
 36 46  1  1
 37 39  1  0
 38 40  1  0
 38 41  1  6
 39 40  1  0
 39 43  1  6
 40 42  1  1
 43 44  1  0
 43 45  2  0
 47 46  1  1
 47 48  1  0
 47 49  1  0
 48 50  1  0
 48 53  1  6
 49 51  1  0
 50 52  1  0
 50 54  1  1
 51 52  1  0
 51 56  1  1
 52 55  1  6
 56 57  1  0
 56 58  2  0
M  CHG  2  44  -1  59   1
M  END
>  <Formula>  (743) 
C42H61NaO16

>  <FW>  (743) 
844.9139 (821.9247+22.9892)

>  <DSSTox_CID>  (743) 
28951

>  <NR-Aromatase>  (743) 
0

>  <NR-AR>  (743) 
0

>  <NR-AR-LBD>  (743) 
0

>  <NR-ER>  (743) 
1

>  <NR-ER-LBD>  (743) 
0

>  <NR-PPAR-gamma>  (743) 
0

>  <NR-AhR>  (743) 
0

>  <SR-ATAD5>  (743) 
0

>  <SR-MMP>  (743) 
0

>  <SR-p53>  (743) 
0

$$$$
NCGC00254049-01
     RDKit          2D

 28 31  0  0  1  0  0  0  0  0999 V2000
    4.2947   -1.5012    0.0000 C   0  0  0  0  0  0  0  0  0  0  0  0
    2.8849   -2.3170    0.0000 C   0  0  0  0  0  0  0  0  0  0  0  0
    5.0844   -1.2597    0.0000 C   0  0  0  0  0  0  0  0  0  0  0  0
    2.1669   -2.7348    0.0000 C   0  0  0  0  0  0  0  0  0  0  0  0
    4.2947   -2.3301    0.0000 C   0  0  0  0  0  0  0  0  0  0  0  0
    3.5833   -2.7348    0.0000 C   0  0  0  0  0  0  0  0  0  0  0  0
    2.1669   -3.5637    0.0000 C   0  0  0  0  0  0  0  0  0  0  0  0
    2.8849   -1.5012    0.0000 C   0  0  0  0  0  0  0  0  0  0  0  0
    5.5609   -1.8993    0.0000 C   0  0  0  0  0  0  0  0  0  0  0  0
    3.5702   -1.0835    0.0000 C   0  0  0  0  0  0  0  0  0  0  0  0
    1.4555   -2.3170    0.0000 C   0  0  0  0  0  0  0  0  0  0  0  0
    5.0844   -2.5585    0.0000 C   0  0  0  0  0  0  0  0  0  0  0  0
    1.4555   -3.9683    0.0000 C   0  0  0  0  0  0  0  0  0  0  0  0
    5.0844   -0.4308    0.0000 C   0  0  0  0  0  0  0  0  0  0  0  0
    3.5833   -3.5637    0.0000 C   0  0  0  0  0  0  0  0  0  0  0  0
    0.7441   -2.7348    0.0000 C   0  0  0  0  0  0  0  0  0  0  0  0
    0.7441   -3.5637    0.0000 C   0  0  0  0  0  0  0  0  0  0  0  0
    2.8849   -3.9683    0.0000 C   0  0  0  0  0  0  0  0  0  0  0  0
    2.8980   -3.1068    0.0000 F   0  0  0  0  0  0  0  0  0  0  0  0
    4.3600    0.0000    0.0000 O   0  0  0  0  0  0  0  0  0  0  0  0
    0.0000   -3.9553    0.0000 O   0  0  0  0  0  0  0  0  0  0  0  0
    4.2947   -0.6788    0.0000 C   0  0  0  0  0  0  0  0  0  0  0  0
    2.1539   -1.0835    0.0000 O   0  0  0  0  0  0  0  0  0  0  0  0
    6.3898   -1.8732    0.0000 O   0  0  0  0  0  0  0  0  0  0  0  0
    2.1669   -1.8993    0.0000 C   0  0  0  0  0  0  0  0  0  0  0  0
    5.8024    0.0000    0.0000 C   0  0  0  0  0  0  0  0  0  0  0  0
    6.5269   -0.3851    0.0000 O   0  0  0  0  0  0  0  0  0  0  0  0
    5.8024   -0.8485    0.0000 O   0  0  0  0  0  0  0  0  0  0  0  0
  1  3  1  0
  1  5  1  0
  1 10  1  0
  1 22  1  1
  2  8  1  0
  2  4  1  0
  2 19  1  6
  2  6  1  0
  3  9  1  0
  3 14  1  0
  3 28  1  6
  4  7  1  0
  4 11  1  0
  4 25  1  1
  5  6  1  0
  5 12  1  1
  6 15  1  6
  7 13  2  0
  7 18  1  0
  8 10  1  0
  8 23  1  1
  9 24  1  6
  9 12  1  0
 11 16  2  0
 13 17  1  0
 14 20  2  0
 14 26  1  0
 15 18  1  0
 16 17  1  0
 17 21  2  0
 26 27  1  0
M  END
>  <Formula>  (744) 
C21H27FO6

>  <FW>  (744) 
394.4339

>  <DSSTox_CID>  (744) 
20742

>  <NR-AR>  (744) 
1

>  <NR-AR-LBD>  (744) 
1

>  <NR-ER>  (744) 
1

>  <NR-ER-LBD>  (744) 
0

>  <NR-PPAR-gamma>  (744) 
0

>  <NR-AhR>  (744) 
0

>  <SR-ATAD5>  (744) 
0

>  <SR-HSE>  (744) 
0

>  <SR-MMP>  (744) 
0

>  <SR-p53>  (744) 
0

$$$$
NCGC00090797-03
     RDKit          2D

 55 62  0  0  1  0  0  0  0  0999 V2000
    8.6371   -5.6717    0.0000 O   0  0  0  0  0  0  0  0  0  0  0  0
    7.9174   -5.2687    0.0000 C   0  0  0  0  0  0  0  0  0  0  0  0
    7.1976   -5.6717    0.0000 C   0  0  0  0  0  0  0  0  0  0  0  0
    7.9174   -4.4194    0.0000 O   0  0  0  0  0  0  0  0  0  0  0  0
    6.4778   -5.2687    0.0000 C   0  0  0  0  0  0  0  0  0  0  0  0
    7.1976   -4.0162    0.0000 C   0  0  0  0  0  0  0  0  0  0  0  0
    6.4778   -4.4194    0.0000 C   0  0  0  0  0  0  0  0  0  0  0  0
    5.7581   -4.0162    0.0000 O   0  0  0  0  0  0  0  0  0  0  0  0
    5.0383   -4.4194    0.0000 C   0  0  0  0  0  0  0  0  0  0  0  0
    5.0383   -5.2687    0.0000 O   0  0  0  0  0  0  0  0  0  0  0  0
    4.3186   -4.0162    0.0000 C   0  0  0  0  0  0  0  0  0  0  0  0
    4.3186   -5.6717    0.0000 C   0  0  0  0  0  0  0  0  0  0  0  0
    3.5988   -4.4194    0.0000 C   0  0  0  0  0  0  0  0  0  0  0  0
    3.5988   -5.2687    0.0000 C   0  0  0  0  0  0  0  0  0  0  0  0
    2.8790   -5.6717    0.0000 O   0  0  0  0  0  0  0  0  0  0  0  0
    2.1593   -5.2687    0.0000 C   0  0  0  0  0  0  0  0  0  0  0  0
    1.4396   -5.6717    0.0000 C   0  0  0  0  0  0  0  0  0  0  0  0
    2.1593   -4.4194    0.0000 O   0  0  0  0  0  0  0  0  0  0  0  0
    0.7197   -5.2687    0.0000 C   0  0  0  0  0  0  0  0  0  0  0  0
    1.4396   -4.0162    0.0000 C   0  0  0  0  0  0  0  0  0  0  0  0
    0.7197   -4.4194    0.0000 C   0  0  0  0  0  0  0  0  0  0  0  0
    5.7581   -5.6717    0.0000 O   0  0  0  0  0  0  0  0  0  0  0  0
    2.8790   -4.0162    0.0000 O   0  0  0  0  0  0  0  0  0  0  0  0
    0.0000   -4.0162    0.0000 O   0  0  0  0  0  0  0  0  0  0  0  0
    0.0000   -5.6717    0.0000 O   0  0  0  0  0  0  0  0  0  0  0  0
    1.4396   -3.1957    0.0000 C   0  0  0  0  0  0  0  0  0  0  0  0
    4.3186   -6.5066    0.0000 C   0  0  0  0  0  0  0  0  0  0  0  0
    7.1976   -3.1957    0.0000 C   0  0  0  0  0  0  0  0  0  0  0  0
    9.3569   -5.2687    0.0000 C   0  0  0  0  0  0  0  0  0  0  0  0
    9.3569   -4.4194    0.0000 C   0  0  0  0  0  0  0  0  0  0  0  0
   10.0767   -5.6717    0.0000 C   0  0  0  0  0  0  0  0  0  0  0  0
   10.0767   -4.0162    0.0000 C   0  0  0  0  0  0  0  0  0  0  0  0
   10.7964   -5.2687    0.0000 C   0  0  0  0  0  0  0  0  0  0  0  0
   10.7964   -4.4338    0.0000 C   0  0  0  0  0  0  0  0  0  0  0  0
   11.5162   -5.6717    0.0000 C   0  0  0  0  0  0  0  0  0  0  0  0
   12.2360   -5.2687    0.0000 C   0  0  0  0  0  0  0  0  0  0  0  0
   11.5162   -4.0162    0.0000 C   0  0  0  0  0  0  0  0  0  0  0  0
   12.2360   -4.4194    0.0000 C   0  0  0  0  0  0  0  0  0  0  0  0
   11.5162   -3.1957    0.0000 C   0  0  0  0  0  0  0  0  0  0  0  0
   12.2360   -2.7639    0.0000 C   0  0  0  0  0  0  0  0  0  0  0  0
   12.9557   -4.0162    0.0000 C   0  0  0  0  0  0  0  0  0  0  0  0
   12.9557   -3.1957    0.0000 C   0  0  0  0  0  0  0  0  0  0  0  0
   14.3952   -4.0162    0.0000 C   0  0  0  0  0  0  0  0  0  0  0  0
   13.6755   -2.7639    0.0000 C   0  0  0  0  0  0  0  0  0  0  0  0
   14.3952   -3.1957    0.0000 C   0  0  0  0  0  0  0  0  0  0  0  0
   13.6755   -1.9434    0.0000 C   0  0  0  0  0  0  0  0  0  0  0  0
   12.9989   -1.4683    0.0000 C   0  0  0  0  0  0  0  0  0  0  0  0
   14.3377   -1.4683    0.0000 C   0  0  0  0  0  0  0  0  0  0  0  0
   13.2580   -0.6622    0.0000 C   0  0  0  0  0  0  0  0  0  0  0  0
   14.0929   -0.6622    0.0000 O   0  0  0  0  0  0  0  0  0  0  0  0
   10.7964   -3.5988    0.0000 C   0  0  0  0  0  0  0  0  0  0  0  0
   12.9557   -4.8656    0.0000 O   0  0  0  0  0  0  0  0  0  0  0  0
   12.9557   -2.3608    0.0000 C   0  0  0  0  0  0  0  0  0  0  0  0
   12.7542    0.0000    0.0000 O   0  0  0  0  0  0  0  0  0  0  0  0
   12.2360   -1.9434    0.0000 O   0  0  0  0  0  0  0  0  0  0  0  0
  2  1  1  1
 29  1  1  1
  2  3  1  0
  2  4  1  0
  3  5  1  0
  4  6  1  0
  5  7  1  0
  5 22  1  6
  6  7  1  0
  6 28  1  1
  7  8  1  6
  9  8  1  6
  9 10  1  0
  9 11  1  0
 10 12  1  0
 11 13  1  0
 12 14  1  0
 12 27  1  6
 13 14  1  0
 13 23  1  1
 14 15  1  1
 16 15  1  1
 16 17  1  0
 16 18  1  0
 17 19  1  0
 18 20  1  0
 19 21  1  0
 19 25  1  6
 20 21  1  0
 20 26  1  1
 21 24  1  6
 29 30  1  0
 29 31  1  0
 30 32  1  0
 33 31  1  6
 32 34  1  0
 33 35  1  0
 33 34  1  0
 34 37  1  0
 34 51  1  1
 35 36  1  0
 38 36  1  6
 37 39  1  1
 37 38  1  0
 38 41  1  0
 39 40  1  0
 40 42  1  0
 40 55  1  1
 41 43  1  0
 41 42  1  0
 41 52  1  1
 42 44  1  0
 42 53  1  1
 43 45  1  0
 44 45  1  1
 44 46  1  0
 46 47  2  0
 46 48  1  0
 47 49  1  0
 48 50  1  0
 49 50  1  0
 49 54  2  0
M  END
>  <Formula>  (745) 
C41H64O14

>  <FW>  (745) 
780.9385

>  <DSSTox_CID>  (745) 
2934

>  <NR-AR-LBD>  (745) 
1

>  <NR-ER>  (745) 
1

>  <NR-ER-LBD>  (745) 
1

>  <NR-AhR>  (745) 
0

>  <SR-MMP>  (745) 
1

$$$$
NCGC00164594-02
     RDKit          2D

 32 35  0  0  1  0  0  0  0  0999 V2000
    4.9572   -2.5261    0.0000 C   0  0  0  0  0  0  0  0  0  0  0  0
    4.3020   -2.7589    0.0000 C   0  0  0  0  0  0  0  0  0  0  0  0
    5.4401   -3.1382    0.0000 C   0  0  0  0  0  0  0  0  0  0  0  0
    5.6901   -2.1122    0.0000 O   0  0  0  0  0  0  0  0  0  0  0  0
    4.9572   -1.7329    0.0000 C   0  0  0  0  0  0  0  0  0  0  0  0
    4.3020   -3.5693    0.0000 C   0  0  0  0  0  0  0  0  0  0  0  0
    3.6037   -2.4399    0.0000 C   0  0  0  0  0  0  0  0  0  0  0  0
    4.3020   -2.0950    0.0000 C   0  0  0  0  0  0  0  0  0  0  0  0
    5.0521   -3.7847    0.0000 C   0  0  0  0  0  0  0  0  0  0  0  0
    6.4574   -2.4743    0.0000 C   0  0  0  0  0  0  0  0  0  0  0  0
    4.2676   -1.3105    0.0000 O   0  0  0  0  0  0  0  0  0  0  0  0
    5.6297   -1.3191    0.0000 O   0  0  0  0  0  0  0  0  0  0  0  0
    3.6382   -3.9917    0.0000 C   0  0  0  0  0  0  0  0  0  0  0  0
    2.8795   -2.8192    0.0000 C   0  0  0  0  0  0  0  0  0  0  0  0
    7.1730   -2.0691    0.0000 O   0  0  0  0  0  0  0  0  0  0  0  0
    6.4574   -3.2761    0.0000 O   0  0  0  0  0  0  0  0  0  0  0  0
    4.2676   -0.4828    0.0000 C   0  0  0  0  0  0  0  0  0  0  0  0
    2.8795   -3.6468    0.0000 C   0  0  0  0  0  0  0  0  0  0  0  0
    3.6382   -4.8366    0.0000 C   0  0  0  0  0  0  0  0  0  0  0  0
    2.1295   -2.4053    0.0000 O   0  0  0  0  0  0  0  0  0  0  0  0
    7.9144   -2.4657    0.0000 C   0  0  0  0  0  0  0  0  0  0  0  0
    3.5089    0.0000    0.0000 Cl  0  0  0  0  0  0  0  0  0  0  0  0
    2.1726   -4.0607    0.0000 C   0  0  0  0  0  0  0  0  0  0  0  0
    2.9571   -5.2676    0.0000 C   0  0  0  0  0  0  0  0  0  0  0  0
    8.6214   -2.0260    0.0000 C   0  0  0  0  0  0  0  0  0  0  0  0
    2.1726   -4.8883    0.0000 C   0  0  0  0  0  0  0  0  0  0  0  0
    1.4484   -3.6210    0.0000 C   0  0  0  0  0  0  0  0  0  0  0  0
    2.1726   -3.2072    0.0000 C   0  0  0  0  0  0  0  0  0  0  0  0
    1.4656   -5.3280    0.0000 C   0  0  0  0  0  0  0  0  0  0  0  0
    0.7155   -4.0520    0.0000 C   0  0  0  0  0  0  0  0  0  0  0  0
    0.7155   -4.9228    0.0000 C   0  0  0  0  0  0  0  0  0  0  0  0
    0.0000   -5.3711    0.0000 O   0  0  0  0  0  0  0  0  0  0  0  0
  1  2  1  0
  1  3  1  0
  1  4  1  6
  1  5  1  0
  2  6  1  0
  2  7  1  0
  2  8  1  1
  3  9  1  0
  4 10  1  0
  5 11  1  0
  5 12  2  0
  6 13  1  0
  6  9  1  1
  7 14  1  0
 10 15  1  0
 10 16  2  0
 11 17  1  0
 13 18  1  0
 13 19  1  6
 14 20  1  1
 18 14  1  1
 15 21  1  0
 17 22  1  0
 18 23  1  0
 19 24  1  0
 21 25  1  0
 23 26  1  0
 23 27  1  0
 23 28  1  1
 24 26  1  0
 26 29  2  0
 27 30  2  0
 29 31  1  0
 30 31  1  0
 31 32  2  0
M  END
>  <Formula>  (746) 
C24H31ClO7

>  <FW>  (746) 
466.9517

>  <DSSTox_CID>  (746) 
26468

>  <SR-ARE>  (746) 
1

>  <SR-HSE>  (746) 
0

$$$$
NCGC00022019-03
     RDKit          2D

 33 36  0  0  1  0  0  0  0  0999 V2000
    4.2340   -2.2753    0.0000 C   0  0  0  0  0  0  0  0  0  0  0  0
    2.8171   -3.0671    0.0000 C   0  0  0  0  0  0  0  0  0  0  0  0
    2.1253   -3.5006    0.0000 C   0  0  0  0  0  0  0  0  0  0  0  0
    4.2340   -3.0671    0.0000 C   0  0  0  0  0  0  0  0  0  0  0  0
    3.5256   -3.5006    0.0000 C   0  0  0  0  0  0  0  0  0  0  0  0
    5.0175   -2.0087    0.0000 C   0  0  0  0  0  0  0  0  0  0  0  0
    2.1253   -4.3007    0.0000 C   0  0  0  0  0  0  0  0  0  0  0  0
    2.8171   -2.2753    0.0000 C   0  0  0  0  0  0  0  0  0  0  0  0
    3.5256   -1.8503    0.0000 C   0  0  0  0  0  0  0  0  0  0  0  0
    5.4758   -2.6587    0.0000 C   0  0  0  0  0  0  0  0  0  0  0  0
    1.4086   -3.0671    0.0000 C   0  0  0  0  0  0  0  0  0  0  0  0
    5.0175   -3.3255    0.0000 C   0  0  0  0  0  0  0  0  0  0  0  0
    1.4086   -4.7257    0.0000 C   0  0  0  0  0  0  0  0  0  0  0  0
    4.9925   -1.1919    0.0000 C   0  0  0  0  0  0  0  0  0  0  0  0
    3.5256   -4.3007    0.0000 C   0  0  0  0  0  0  0  0  0  0  0  0
    0.7001   -3.5006    0.0000 C   0  0  0  0  0  0  0  0  0  0  0  0
    0.7001   -4.3007    0.0000 C   0  0  0  0  0  0  0  0  0  0  0  0
    2.8171   -4.7257    0.0000 C   0  0  0  0  0  0  0  0  0  0  0  0
    2.8171   -3.9089    0.0000 F   0  0  0  0  0  0  0  0  0  0  0  0
    4.2924   -0.7835    0.0000 O   0  0  0  0  0  0  0  0  0  0  0  0
    0.0000   -4.7257    0.0000 O   0  0  0  0  0  0  0  0  0  0  0  0
    5.8259   -2.1087    0.0000 O   0  0  0  0  0  0  0  0  0  0  0  0
    4.2340   -1.4336    0.0000 C   0  0  0  0  0  0  0  0  0  0  0  0
    2.1087   -1.8419    0.0000 O   0  0  0  0  0  0  0  0  0  0  0  0
    2.1253   -2.6587    0.0000 C   0  0  0  0  0  0  0  0  0  0  0  0
    5.7176   -0.7918    0.0000 C   0  0  0  0  0  0  0  0  0  0  0  0
    5.7009    0.0000    0.0000 Cl  0  0  0  0  0  0  0  0  0  0  0  0
    6.3093   -2.6587    0.0000 C   0  0  0  0  0  0  0  0  0  0  0  0
    6.3093   -1.4919    0.0000 C   0  0  0  0  0  0  0  0  0  0  0  0
    5.9593   -0.7001    0.0000 O   0  0  0  0  0  0  0  0  0  0  0  0
    7.1261   -1.4919    0.0000 C   0  0  0  0  0  0  0  0  0  0  0  0
    7.5178   -0.7835    0.0000 C   0  0  0  0  0  0  0  0  0  0  0  0
    8.3346   -0.7835    0.0000 C   0  0  0  0  0  0  0  0  0  0  0  0
  1  4  1  0
  1  6  1  0
  1  9  1  0
  1 23  1  1
  2  8  1  0
  2  3  1  0
  2 19  1  6
  2  5  1  0
  3  7  1  0
  3 11  1  0
  3 25  1  1
  4  5  1  0
  4 12  1  1
  5 15  1  6
  6 10  1  0
  6 14  1  0
  6 22  1  6
  7 13  2  0
  7 18  1  0
  8  9  1  0
  8 24  2  0
 10 28  1  1
 10 12  1  0
 11 16  2  0
 13 17  1  0
 14 20  2  0
 14 26  1  0
 15 18  1  0
 16 17  1  0
 17 21  2  0
 22 29  1  0
 26 27  1  0
 29 30  2  0
 29 31  1  0
 31 32  1  0
 32 33  1  0
M  END
>  <Formula>  (747) 
C26H32ClFO5

>  <FW>  (747) 
478.9807

>  <DSSTox_CID>  (747) 
26823

>  <SR-ARE>  (747) 
1

>  <SR-HSE>  (747) 
0

$$$$
NCGC00022680-05
     RDKit          2D

 28 31  0  0  1  0  0  0  0  0999 V2000
    5.4043    0.0000    0.0000 C   0  0  0  0  0  0  0  0  0  0  0  0
    4.8176   -0.5578    0.0000 C   0  0  0  0  0  0  0  0  0  0  0  0
    4.0134   -0.3477    0.0000 O   0  0  0  0  0  0  0  0  0  0  0  0
    5.0784   -1.6083    0.0000 C   0  0  0  0  0  0  0  0  0  0  0  0
    5.5565   -2.2748    0.0000 C   0  0  0  0  0  0  0  0  0  0  0  0
    5.0638   -2.9485    0.0000 C   0  0  0  0  0  0  0  0  0  0  0  0
    4.2887   -2.6877    0.0000 C   0  0  0  0  0  0  0  0  0  0  0  0
    3.5643   -3.0934    0.0000 C   0  0  0  0  0  0  0  0  0  0  0  0
    3.5643   -3.9265    0.0000 C   0  0  0  0  0  0  0  0  0  0  0  0
    2.8471   -4.3394    0.0000 C   0  0  0  0  0  0  0  0  0  0  0  0
    2.8471   -5.1652    0.0000 Cl  0  0  0  0  0  0  0  0  0  0  0  0
    2.1371   -3.9265    0.0000 C   0  0  0  0  0  0  0  0  0  0  0  0
    1.4271   -4.3394    0.0000 C   0  0  0  0  0  0  0  0  0  0  0  0
    0.7100   -3.9265    0.0000 C   0  0  0  0  0  0  0  0  0  0  0  0
    0.0000   -4.3394    0.0000 O   0  0  0  0  0  0  0  0  0  0  0  0
    0.7172   -3.0934    0.0000 C   0  0  0  0  0  0  0  0  0  0  0  0
    1.4271   -2.6877    0.0000 C   0  0  0  0  0  0  0  0  0  0  0  0
    2.1371   -3.1079    0.0000 C   0  0  0  0  0  0  0  0  0  0  0  0
    2.1516   -2.2748    0.0000 C   0  0  0  0  0  0  0  0  0  0  0  0
    2.8543   -2.6877    0.0000 C   0  0  0  0  0  0  0  0  0  0  0  0
    2.8543   -1.8691    0.0000 C   0  0  0  0  0  0  0  0  0  0  0  0
    3.5787   -1.4489    0.0000 C   0  0  0  0  0  0  0  0  0  0  0  0
    4.2887   -1.8691    0.0000 C   0  0  0  0  0  0  0  0  0  0  0  0
    4.2235   -1.0359    0.0000 C   0  0  0  0  0  0  0  0  0  0  0  0
    5.8172   -1.2605    0.0000 O   0  0  0  0  0  0  0  0  0  0  0  0
    6.4983   -1.7387    0.0000 C   0  0  0  0  0  0  0  0  0  0  0  0
    7.2444   -1.3909    0.0000 C   0  0  0  0  0  0  0  0  0  0  0  0
    6.4258   -2.5573    0.0000 O   0  0  0  0  0  0  0  0  0  0  0  0
  1  2  1  0
  2  3  2  0
  4  2  1  0
  4  5  1  0
  4 23  1  0
  4 25  1  6
  5  6  1  0
  7  6  1  1
  7  8  1  0
  7 23  1  0
  8  9  1  6
  8 20  1  0
  9 10  2  0
 10 11  1  0
 10 12  1  0
 12 13  2  0
 12 18  1  0
 13 14  1  0
 14 15  2  0
 14 16  1  0
 16 17  1  0
 17 18  1  0
 18 19  1  1
 18 20  1  0
 20 21  1  1
 21 22  1  0
 22 23  1  0
 23 24  1  1
 25 26  1  0
 26 27  1  0
 26 28  2  0
M  END
>  <Formula>  (748) 
C23H29ClO4

>  <FW>  (748) 
404.9270

>  <DSSTox_CID>  (748) 
274

>  <SR-ARE>  (748) 
1

>  <SR-HSE>  (748) 
0

$$$$
NCGC00255784-01
     RDKit          2D

 31 34  0  0  1  0  0  0  0  0999 V2000
    4.3181   -1.3620    0.0000 C   0  0  0  0  0  0  0  0  0  0  0  0
    5.1152   -1.0997    0.0000 C   0  0  0  0  0  0  0  0  0  0  0  0
    2.1792   -2.5929    0.0000 C   0  0  0  0  0  0  0  0  0  0  0  0
    4.3181   -2.1893    0.0000 C   0  0  0  0  0  0  0  0  0  0  0  0
    2.1792   -3.4303    0.0000 C   0  0  0  0  0  0  0  0  0  0  0  0
    2.8854   -2.1893    0.0000 C   0  0  0  0  0  0  0  0  0  0  0  0
    3.6119   -2.5929    0.0000 C   0  0  0  0  0  0  0  0  0  0  0  0
    1.4629   -3.8338    0.0000 C   0  0  0  0  0  0  0  0  0  0  0  0
    3.6119   -0.9383    0.0000 C   0  0  0  0  0  0  0  0  0  0  0  0
    5.5994   -1.7757    0.0000 C   0  0  0  0  0  0  0  0  0  0  0  0
    5.8617   -1.0997    0.0000 O   0  0  0  0  0  0  0  0  0  0  0  0
    5.1051   -2.4416    0.0000 C   0  0  0  0  0  0  0  0  0  0  0  0
    2.8854   -1.3620    0.0000 C   0  0  0  0  0  0  0  0  0  0  0  0
    1.4629   -2.1893    0.0000 C   0  0  0  0  0  0  0  0  0  0  0  0
    5.1152   -0.3632    0.0000 C   0  0  0  0  0  0  0  0  0  0  0  0
    3.6119   -3.4303    0.0000 C   0  0  0  0  0  0  0  0  0  0  0  0
    6.5882   -1.5133    0.0000 C   0  0  0  0  0  0  0  0  0  0  0  0
    2.8854   -3.8338    0.0000 C   0  0  0  0  0  0  0  0  0  0  0  0
    0.7365   -3.4303    0.0000 C   0  0  0  0  0  0  0  0  0  0  0  0
    6.5882   -2.3205    0.0000 O   0  0  0  0  0  0  0  0  0  0  0  0
    5.7508    0.0000    0.0000 O   0  0  0  0  0  0  0  0  0  0  0  0
    0.0000   -3.8338    0.0000 O   0  0  0  0  0  0  0  0  0  0  0  0
    0.7365   -2.5929    0.0000 C   0  0  0  0  0  0  0  0  0  0  0  0
    4.3181   -0.5246    0.0000 C   0  0  0  0  0  0  0  0  0  0  0  0
    2.1792   -1.7757    0.0000 C   0  0  0  0  0  0  0  0  0  0  0  0
    7.2944   -1.1098    0.0000 C   0  0  0  0  0  0  0  0  0  0  0  0
    4.4795    0.0000    0.0000 C   0  0  0  0  0  0  0  0  0  0  0  0
    7.9805   -1.5234    0.0000 C   0  0  0  0  0  0  0  0  0  0  0  0
    9.3929   -1.5335    0.0000 C   0  0  0  0  0  0  0  0  0  0  0  0
    8.6968   -1.1199    0.0000 C   0  0  0  0  0  0  0  0  0  0  0  0
   10.0891   -1.1300    0.0000 C   0  0  0  0  0  0  0  0  0  0  0  0
  1  2  1  0
  1  4  1  0
  1  9  1  0
  1 24  1  1
  2 10  1  0
  2 11  1  6
  2 15  1  0
  3  6  1  0
  3  5  1  0
  3 14  1  0
  3 25  1  1
  4  7  1  0
  4 12  1  1
  5  8  2  0
  5 18  1  0
  6 13  1  1
  6  7  1  0
  7 16  1  6
  8 19  1  0
  9 13  1  0
 10 12  1  0
 11 17  1  0
 14 23  1  0
 15 21  2  0
 15 27  1  0
 16 18  1  0
 17 20  2  0
 17 26  1  0
 19 23  1  0
 19 22  2  0
 26 28  1  0
 28 30  1  0
 29 30  1  0
 29 31  1  0
M  END
>  <Formula>  (749) 
C27H40O4

>  <FW>  (749) 
428.6041

>  <DSSTox_CID>  (749) 
23915

>  <NR-ER-LBD>  (749) 
0

>  <NR-AhR>  (749) 
0

>  <SR-ARE>  (749) 
1

>  <SR-ATAD5>  (749) 
0

>  <SR-HSE>  (749) 
1

>  <SR-p53>  (749) 
0

$$$$
NCGC00259235-01
     RDKit          2D

 29 33  0  0  1  0  0  0  0  0999 V2000
    2.1521   -2.9413    0.0000 C   0  0  0  0  0  0  0  0  0  0  0  0
    2.1521   -3.7735    0.0000 C   0  0  0  0  0  0  0  0  0  0  0  0
    1.4563   -2.5324    0.0000 C   0  0  0  0  0  0  0  0  0  0  0  0
    0.7174   -2.9628    0.0000 C   0  0  0  0  0  0  0  0  0  0  0  0
    4.2900   -1.7074    0.0000 C   0  0  0  0  0  0  0  0  0  0  0  0
    2.8767   -2.5324    0.0000 C   0  0  0  0  0  0  0  0  0  0  0  0
    3.5798   -2.9628    0.0000 C   0  0  0  0  0  0  0  0  0  0  0  0
    0.7174   -2.1379    0.0000 C   0  0  0  0  0  0  0  0  0  0  0  0
    2.8767   -4.1895    0.0000 C   0  0  0  0  0  0  0  0  0  0  0  0
    1.4563   -4.1895    0.0000 C   0  0  0  0  0  0  0  0  0  0  0  0
    5.0576   -1.4491    0.0000 C   0  0  0  0  0  0  0  0  0  0  0  0
    3.5798   -3.7950    0.0000 C   0  0  0  0  0  0  0  0  0  0  0  0
    4.2900   -2.5324    0.0000 C   0  0  0  0  0  0  0  0  0  0  0  0
    0.7174   -3.7735    0.0000 C   0  0  0  0  0  0  0  0  0  0  0  0
    3.5654   -1.3200    0.0000 C   0  0  0  0  0  0  0  0  0  0  0  0
    2.8767   -1.7074    0.0000 C   0  0  0  0  0  0  0  0  0  0  0  0
    5.5454   -2.1379    0.0000 C   0  0  0  0  0  0  0  0  0  0  0  0
    5.0576   -2.7906    0.0000 C   0  0  0  0  0  0  0  0  0  0  0  0
    5.3374   -0.7389    0.0000 C   0  0  0  0  0  0  0  0  0  0  0  0
    0.0000   -4.2828    0.0000 O   0  0  0  0  0  0  0  0  0  0  0  0
    4.9069    0.0000    0.0000 O   0  0  0  0  0  0  0  0  0  0  0  0
    2.8767   -5.0289    0.0000 Cl  0  0  0  0  0  0  0  0  0  0  0  0
    5.9400   -1.4491    0.0000 O   0  0  0  0  0  0  0  0  0  0  0  0
    2.1665   -2.0876    0.0000 C   0  0  0  0  0  0  0  0  0  0  0  0
    4.2900   -0.9613    0.0000 C   0  0  0  0  0  0  0  0  0  0  0  0
    6.1767   -0.7389    0.0000 C   0  0  0  0  0  0  0  0  0  0  0  0
    6.3489   -2.1665    0.0000 C   0  0  0  0  0  0  0  0  0  0  0  0
    7.1739   -2.1665    0.0000 C   0  0  0  0  0  0  0  0  0  0  0  0
    5.9400   -2.8839    0.0000 O   0  0  0  0  0  0  0  0  0  0  0  0
  1  2  1  0
  1  3  1  0
  1  6  1  0
  1 24  1  1
  2  9  1  0
  2 10  2  0
  3  4  1  0
  3  8  1  6
  4 14  1  0
  4  8  1  6
  5 15  1  0
  5 11  1  0
  5 25  1  1
  5 13  1  0
  6  7  1  0
  6 16  1  1
  7 12  1  6
  7 13  1  0
  9 22  1  0
  9 12  2  0
 10 14  1  0
 11 19  1  0
 11 23  1  6
 11 17  1  0
 13 18  1  1
 14 20  2  0
 15 16  1  0
 17 18  1  0
 19 21  2  0
 19 26  1  0
 23 27  1  0
 27 28  1  0
 27 29  2  0
M  END
>  <Formula>  (750) 
C24H29ClO4

>  <FW>  (750) 
416.9377

>  <DSSTox_CID>  (750) 
366

>  <NR-AR>  (750) 
1

>  <NR-AR-LBD>  (750) 
0

>  <NR-ER>  (750) 
0

>  <NR-ER-LBD>  (750) 
0

>  <NR-AhR>  (750) 
0

>  <SR-ARE>  (750) 
1

$$$$
NCGC00255456-01
     RDKit          2D

 28 31  0  0  1  0  0  0  0  0999 V2000
    2.1525   -3.5559    0.0000 C   0  0  0  0  0  0  0  0  0  0  0  0
    2.1525   -2.7342    0.0000 C   0  0  0  0  0  0  0  0  0  0  0  0
    4.3122   -1.4762    0.0000 C   0  0  0  0  0  0  0  0  0  0  0  0
    5.0903   -1.2362    0.0000 C   0  0  0  0  0  0  0  0  0  0  0  0
    3.5923   -2.7342    0.0000 C   0  0  0  0  0  0  0  0  0  0  0  0
    3.5923   -3.5559    0.0000 C   0  0  0  0  0  0  0  0  0  0  0  0
    2.8796   -2.3197    0.0000 C   0  0  0  0  0  0  0  0  0  0  0  0
    4.3122   -2.3197    0.0000 C   0  0  0  0  0  0  0  0  0  0  0  0
    2.8796   -3.9631    0.0000 C   0  0  0  0  0  0  0  0  0  0  0  0
    1.4471   -3.9631    0.0000 C   0  0  0  0  0  0  0  0  0  0  0  0
    3.5923   -1.0690    0.0000 C   0  0  0  0  0  0  0  0  0  0  0  0
    5.5702   -1.9125    0.0000 C   0  0  0  0  0  0  0  0  0  0  0  0
    5.8029   -0.8508    0.0000 O   0  0  0  0  0  0  0  0  0  0  0  0
    2.8796   -1.4762    0.0000 C   0  0  0  0  0  0  0  0  0  0  0  0
    5.0903   -2.5597    0.0000 C   0  0  0  0  0  0  0  0  0  0  0  0
    1.4471   -2.3197    0.0000 C   0  0  0  0  0  0  0  0  0  0  0  0
    5.0903   -0.4290    0.0000 C   0  0  0  0  0  0  0  0  0  0  0  0
    6.5374   -1.2362    0.0000 C   0  0  0  0  0  0  0  0  0  0  0  0
    0.7199   -3.5559    0.0000 C   0  0  0  0  0  0  0  0  0  0  0  0
    6.5374   -2.0724    0.0000 O   0  0  0  0  0  0  0  0  0  0  0  0
    5.8174    0.0000    0.0000 O   0  0  0  0  0  0  0  0  0  0  0  0
    0.0000   -3.9704    0.0000 O   0  0  0  0  0  0  0  0  0  0  0  0
    0.7199   -2.7342    0.0000 C   0  0  0  0  0  0  0  0  0  0  0  0
    2.1525   -1.9125    0.0000 C   0  0  0  0  0  0  0  0  0  0  0  0
    4.3122   -0.6472    0.0000 C   0  0  0  0  0  0  0  0  0  0  0  0
    2.8796   -4.7994    0.0000 C   0  0  0  0  0  0  0  0  0  0  0  0
    7.2718   -0.8144    0.0000 C   0  0  0  0  0  0  0  0  0  0  0  0
    4.3849    0.0000    0.0000 C   0  0  0  0  0  0  0  0  0  0  0  0
  1  2  1  0
  1  9  1  0
  1 10  2  0
  2  7  1  0
  2 16  1  0
  2 24  1  1
  3  8  1  0
  3  4  1  0
  3 25  1  1
  3 11  1  0
  4 13  1  6
  4 17  1  0
  4 12  1  0
  5  6  1  6
  5  8  1  0
  5  7  1  0
  6  9  2  0
  7 14  1  1
  8 15  1  1
  9 26  1  0
 10 19  1  0
 11 14  1  0
 12 15  1  0
 13 18  1  0
 16 23  1  0
 17 21  2  0
 17 28  1  0
 18 20  2  0
 18 27  1  0
 19 22  2  0
 19 23  1  0
M  END
>  <Formula>  (751) 
C24H32O4

>  <FW>  (751) 
384.5085

>  <DSSTox_CID>  (751) 
20683

>  <NR-AR>  (751) 
1

>  <NR-ER>  (751) 
0

>  <NR-ER-LBD>  (751) 
0

>  <NR-AhR>  (751) 
0

>  <SR-ARE>  (751) 
1

>  <SR-ATAD5>  (751) 
0

>  <SR-HSE>  (751) 
0

>  <SR-p53>  (751) 
0

$$$$
NCGC00258219-01
     RDKit          2D

 28 31  0  0  1  0  0  0  0  0999 V2000
    5.4043    0.0000    0.0000 C   0  0  0  0  0  0  0  0  0  0  0  0
    4.8176   -0.5578    0.0000 C   0  0  0  0  0  0  0  0  0  0  0  0
    4.0134   -0.3477    0.0000 O   0  0  0  0  0  0  0  0  0  0  0  0
    5.0784   -1.6083    0.0000 C   0  0  0  0  0  0  0  0  0  0  0  0
    5.5565   -2.2748    0.0000 C   0  0  0  0  0  0  0  0  0  0  0  0
    5.0638   -2.9485    0.0000 C   0  0  0  0  0  0  0  0  0  0  0  0
    4.2887   -2.6877    0.0000 C   0  0  0  0  0  0  0  0  0  0  0  0
    3.5643   -3.0934    0.0000 C   0  0  0  0  0  0  0  0  0  0  0  0
    3.5643   -3.9265    0.0000 C   0  0  0  0  0  0  0  0  0  0  0  0
    2.8471   -4.3394    0.0000 C   0  0  0  0  0  0  0  0  0  0  0  0
    2.8471   -5.1652    0.0000 Cl  0  0  0  0  0  0  0  0  0  0  0  0
    2.1371   -3.9265    0.0000 C   0  0  0  0  0  0  0  0  0  0  0  0
    1.4271   -4.3394    0.0000 C   0  0  0  0  0  0  0  0  0  0  0  0
    0.7100   -3.9265    0.0000 C   0  0  0  0  0  0  0  0  0  0  0  0
    0.0000   -4.3394    0.0000 O   0  0  0  0  0  0  0  0  0  0  0  0
    0.7172   -3.0934    0.0000 C   0  0  0  0  0  0  0  0  0  0  0  0
    1.4271   -2.6877    0.0000 C   0  0  0  0  0  0  0  0  0  0  0  0
    2.1371   -3.1079    0.0000 C   0  0  0  0  0  0  0  0  0  0  0  0
    2.1516   -2.2748    0.0000 C   0  0  0  0  0  0  0  0  0  0  0  0
    2.8543   -2.6877    0.0000 C   0  0  0  0  0  0  0  0  0  0  0  0
    2.8543   -1.8691    0.0000 C   0  0  0  0  0  0  0  0  0  0  0  0
    3.5787   -1.4489    0.0000 C   0  0  0  0  0  0  0  0  0  0  0  0
    4.2887   -1.8691    0.0000 C   0  0  0  0  0  0  0  0  0  0  0  0
    4.2235   -1.0359    0.0000 C   0  0  0  0  0  0  0  0  0  0  0  0
    5.8172   -1.2605    0.0000 O   0  0  0  0  0  0  0  0  0  0  0  0
    6.4983   -1.7387    0.0000 C   0  0  0  0  0  0  0  0  0  0  0  0
    7.2444   -1.3909    0.0000 C   0  0  0  0  0  0  0  0  0  0  0  0
    6.4258   -2.5573    0.0000 O   0  0  0  0  0  0  0  0  0  0  0  0
  1  2  1  0
  2  3  2  0
  4  2  1  0
  4  5  1  0
  4 23  1  0
  4 25  1  6
  5  6  1  0
  7  6  1  1
  7  8  1  0
  7 23  1  0
  8  9  1  6
  8 20  1  0
  9 10  2  0
 10 11  1  0
 10 12  1  0
 12 13  2  0
 12 18  1  0
 13 14  1  0
 14 15  2  0
 14 16  1  0
 16 17  1  0
 17 18  1  0
 18 19  1  1
 18 20  1  0
 20 21  1  1
 21 22  1  0
 22 23  1  0
 23 24  1  1
 25 26  1  0
 26 27  1  0
 26 28  2  0
M  END
>  <Formula>  (752) 
C23H29ClO4

>  <FW>  (752) 
404.9270

>  <DSSTox_CID>  (752) 
274

>  <NR-AR>  (752) 
1

>  <NR-AR-LBD>  (752) 
1

>  <NR-ER-LBD>  (752) 
0

>  <NR-PPAR-gamma>  (752) 
0

>  <NR-AhR>  (752) 
0

>  <SR-ARE>  (752) 
1

>  <SR-ATAD5>  (752) 
0

>  <SR-HSE>  (752) 
0

$$$$
NCGC00256442-01
     RDKit          2D

 29 33  0  0  1  0  0  0  0  0999 V2000
    2.1521   -2.9413    0.0000 C   0  0  0  0  0  0  0  0  0  0  0  0
    2.1521   -3.7735    0.0000 C   0  0  0  0  0  0  0  0  0  0  0  0
    1.4563   -2.5324    0.0000 C   0  0  0  0  0  0  0  0  0  0  0  0
    0.7174   -2.9628    0.0000 C   0  0  0  0  0  0  0  0  0  0  0  0
    4.2900   -1.7074    0.0000 C   0  0  0  0  0  0  0  0  0  0  0  0
    2.8767   -2.5324    0.0000 C   0  0  0  0  0  0  0  0  0  0  0  0
    3.5798   -2.9628    0.0000 C   0  0  0  0  0  0  0  0  0  0  0  0
    0.7174   -2.1379    0.0000 C   0  0  0  0  0  0  0  0  0  0  0  0
    2.8767   -4.1895    0.0000 C   0  0  0  0  0  0  0  0  0  0  0  0
    1.4563   -4.1895    0.0000 C   0  0  0  0  0  0  0  0  0  0  0  0
    5.0576   -1.4491    0.0000 C   0  0  0  0  0  0  0  0  0  0  0  0
    3.5798   -3.7950    0.0000 C   0  0  0  0  0  0  0  0  0  0  0  0
    4.2900   -2.5324    0.0000 C   0  0  0  0  0  0  0  0  0  0  0  0
    0.7174   -3.7735    0.0000 C   0  0  0  0  0  0  0  0  0  0  0  0
    3.5654   -1.3200    0.0000 C   0  0  0  0  0  0  0  0  0  0  0  0
    2.8767   -1.7074    0.0000 C   0  0  0  0  0  0  0  0  0  0  0  0
    5.5454   -2.1379    0.0000 C   0  0  0  0  0  0  0  0  0  0  0  0
    5.0576   -2.7906    0.0000 C   0  0  0  0  0  0  0  0  0  0  0  0
    5.3374   -0.7389    0.0000 C   0  0  0  0  0  0  0  0  0  0  0  0
    0.0000   -4.2828    0.0000 O   0  0  0  0  0  0  0  0  0  0  0  0
    4.9069    0.0000    0.0000 O   0  0  0  0  0  0  0  0  0  0  0  0
    2.8767   -5.0289    0.0000 Cl  0  0  0  0  0  0  0  0  0  0  0  0
    5.9400   -1.4491    0.0000 O   0  0  0  0  0  0  0  0  0  0  0  0
    2.1665   -2.0876    0.0000 C   0  0  0  0  0  0  0  0  0  0  0  0
    4.2900   -0.9613    0.0000 C   0  0  0  0  0  0  0  0  0  0  0  0
    6.1767   -0.7389    0.0000 C   0  0  0  0  0  0  0  0  0  0  0  0
    6.3489   -2.1665    0.0000 C   0  0  0  0  0  0  0  0  0  0  0  0
    7.1739   -2.1665    0.0000 C   0  0  0  0  0  0  0  0  0  0  0  0
    5.9400   -2.8839    0.0000 O   0  0  0  0  0  0  0  0  0  0  0  0
  1  2  1  0
  1  3  1  0
  1  6  1  0
  1 24  1  1
  2  9  1  0
  2 10  2  0
  3  4  1  0
  3  8  1  6
  4 14  1  0
  4  8  1  6
  5 15  1  0
  5 11  1  0
  5 25  1  1
  5 13  1  0
  6  7  1  0
  6 16  1  1
  7 12  1  6
  7 13  1  0
  9 22  1  0
  9 12  2  0
 10 14  1  0
 11 19  1  0
 11 23  1  6
 11 17  1  0
 13 18  1  1
 14 20  2  0
 15 16  1  0
 17 18  1  0
 19 21  2  0
 19 26  1  0
 23 27  1  0
 27 28  1  0
 27 29  2  0
M  END
>  <Formula>  (753) 
C24H29ClO4

>  <FW>  (753) 
416.9377

>  <DSSTox_CID>  (753) 
366

>  <NR-Aromatase>  (753) 
0

>  <NR-AR>  (753) 
1

>  <NR-AR-LBD>  (753) 
1

>  <NR-ER>  (753) 
0

>  <NR-ER-LBD>  (753) 
0

>  <SR-ARE>  (753) 
1

>  <SR-ATAD5>  (753) 
0

>  <SR-HSE>  (753) 
0

>  <SR-p53>  (753) 
0

$$$$
NCGC00257329-01
     RDKit          2D

 29 32  0  0  1  0  0  0  0  0999 V2000
    4.3082   -1.4979    0.0000 C   0  0  0  0  0  0  0  0  0  0  0  0
    5.0942   -1.2532    0.0000 C   0  0  0  0  0  0  0  0  0  0  0  0
    2.1801   -3.5371    0.0000 C   0  0  0  0  0  0  0  0  0  0  0  0
    2.1801   -2.7288    0.0000 C   0  0  0  0  0  0  0  0  0  0  0  0
    4.3082   -2.3506    0.0000 C   0  0  0  0  0  0  0  0  0  0  0  0
    3.6112   -2.7288    0.0000 C   0  0  0  0  0  0  0  0  0  0  0  0
    5.5762   -1.9279    0.0000 C   0  0  0  0  0  0  0  0  0  0  0  0
    3.6112   -3.5371    0.0000 C   0  0  0  0  0  0  0  0  0  0  0  0
    2.8845   -2.3506    0.0000 C   0  0  0  0  0  0  0  0  0  0  0  0
    2.8845   -3.9597    0.0000 C   0  0  0  0  0  0  0  0  0  0  0  0
    5.0942   -2.5879    0.0000 C   0  0  0  0  0  0  0  0  0  0  0  0
    1.4608   -3.9597    0.0000 C   0  0  0  0  0  0  0  0  0  0  0  0
    3.6112   -1.0900    0.0000 C   0  0  0  0  0  0  0  0  0  0  0  0
    5.9248   -1.2977    0.0000 O   0  0  0  0  0  0  0  0  0  0  0  0
    2.8845   -1.4979    0.0000 C   0  0  0  0  0  0  0  0  0  0  0  0
    1.4608   -2.3506    0.0000 C   0  0  0  0  0  0  0  0  0  0  0  0
    5.0942   -0.4078    0.0000 C   0  0  0  0  0  0  0  0  0  0  0  0
    6.6440   -0.8824    0.0000 C   0  0  0  0  0  0  0  0  0  0  0  0
    0.7489   -3.5371    0.0000 C   0  0  0  0  0  0  0  0  0  0  0  0
    6.4067   -1.9279    0.0000 C   0  0  0  0  0  0  0  0  0  0  0  0
    6.6440   -0.0222    0.0000 O   0  0  0  0  0  0  0  0  0  0  0  0
    4.3750    0.0000    0.0000 O   0  0  0  0  0  0  0  0  0  0  0  0
    0.0000   -3.9449    0.0000 O   0  0  0  0  0  0  0  0  0  0  0  0
    4.3082   -0.6674    0.0000 C   0  0  0  0  0  0  0  0  0  0  0  0
    0.7489   -2.7288    0.0000 C   0  0  0  0  0  0  0  0  0  0  0  0
    2.1801   -1.8983    0.0000 C   0  0  0  0  0  0  0  0  0  0  0  0
    2.8845   -4.7976    0.0000 C   0  0  0  0  0  0  0  0  0  0  0  0
    7.4152   -1.2383    0.0000 C   0  0  0  0  0  0  0  0  0  0  0  0
    5.8061    0.0000    0.0000 C   0  0  0  0  0  0  0  0  0  0  0  0
  1  2  1  0
  1  5  1  0
  1 13  1  0
  1 24  1  1
  2  7  1  0
  2 14  1  6
  2 17  1  0
  3  4  1  0
  3 12  2  0
  3 10  1  0
  4  9  1  0
  4 16  1  0
  4 26  1  1
  5  6  1  0
  5 11  1  1
  6  8  1  6
  6  9  1  0
  7 20  2  0
  7 11  1  0
  8 10  2  0
  9 15  1  1
 10 27  1  0
 12 19  1  0
 13 15  1  0
 14 18  1  0
 16 25  1  0
 17 22  2  0
 17 29  1  0
 18 21  2  0
 18 28  1  0
 19 25  1  0
 19 23  2  0
M  END
>  <Formula>  (754) 
C25H32O4

>  <FW>  (754) 
396.5192

>  <DSSTox_CID>  (754) 
28158

>  <NR-AR>  (754) 
1

>  <NR-AR-LBD>  (754) 
0

>  <NR-PPAR-gamma>  (754) 
0

>  <SR-ARE>  (754) 
1

>  <SR-ATAD5>  (754) 
0

>  <SR-HSE>  (754) 
0

>  <SR-MMP>  (754) 
0

>  <SR-p53>  (754) 
0

$$$$
NCGC00256415-01
     RDKit          2D

 31 35  0  0  1  0  0  0  0  0999 V2000
    5.1538   -2.1009    0.0000 C   0  0  0  0  0  0  0  0  0  0  0  0
    4.3477   -2.3582    0.0000 C   0  0  0  0  0  0  0  0  0  0  0  0
    5.6426   -2.7441    0.0000 C   0  0  0  0  0  0  0  0  0  0  0  0
    5.6426   -1.4578    0.0000 O   0  0  0  0  0  0  0  0  0  0  0  0
    4.9223   -1.3377    0.0000 C   0  0  0  0  0  0  0  0  0  0  0  0
    4.3477   -3.1386    0.0000 C   0  0  0  0  0  0  0  0  0  0  0  0
    3.6360   -1.9638    0.0000 C   0  0  0  0  0  0  0  0  0  0  0  0
    4.3820   -1.7408    0.0000 C   0  0  0  0  0  0  0  0  0  0  0  0
    5.1538   -3.3872    0.0000 C   0  0  0  0  0  0  0  0  0  0  0  0
    6.4401   -2.4954    0.0000 O   0  0  0  0  0  0  0  0  0  0  0  0
    6.4401   -1.7065    0.0000 C   0  0  0  0  0  0  0  0  0  0  0  0
    5.5053   -0.7547    0.0000 C   0  0  0  0  0  0  0  0  0  0  0  0
    4.1247   -1.1405    0.0000 O   0  0  0  0  0  0  0  0  0  0  0  0
    3.6360   -3.5502    0.0000 C   0  0  0  0  0  0  0  0  0  0  0  0
    2.8985   -2.3582    0.0000 C   0  0  0  0  0  0  0  0  0  0  0  0
    7.1175   -1.2348    0.0000 C   0  0  0  0  0  0  0  0  0  0  0  0
    5.2738    0.0000    0.0000 O   0  0  0  0  0  0  0  0  0  0  0  0
    2.8985   -3.1386    0.0000 C   0  0  0  0  0  0  0  0  0  0  0  0
    3.6360   -4.3391    0.0000 C   0  0  0  0  0  0  0  0  0  0  0  0
    2.1781   -1.9638    0.0000 O   0  0  0  0  0  0  0  0  0  0  0  0
    7.8893   -1.5607    0.0000 C   0  0  0  0  0  0  0  0  0  0  0  0
    2.1781   -3.5502    0.0000 C   0  0  0  0  0  0  0  0  0  0  0  0
    2.8985   -4.7421    0.0000 C   0  0  0  0  0  0  0  0  0  0  0  0
    8.5753   -1.0891    0.0000 C   0  0  0  0  0  0  0  0  0  0  0  0
    2.1781   -4.3391    0.0000 C   0  0  0  0  0  0  0  0  0  0  0  0
    1.4492   -3.1386    0.0000 C   0  0  0  0  0  0  0  0  0  0  0  0
    2.1781   -2.7441    0.0000 C   0  0  0  0  0  0  0  0  0  0  0  0
    1.4492   -4.7421    0.0000 C   0  0  0  0  0  0  0  0  0  0  0  0
    0.7203   -3.5502    0.0000 C   0  0  0  0  0  0  0  0  0  0  0  0
    0.7203   -4.3391    0.0000 C   0  0  0  0  0  0  0  0  0  0  0  0
    0.0000   -4.7421    0.0000 O   0  0  0  0  0  0  0  0  0  0  0  0
  1  2  1  0
  1  3  1  0
  1  4  1  0
  1  5  1  1
  2  6  1  0
  2  7  1  0
  2  8  1  1
  3  9  1  6
  3 10  1  0
  4 11  1  0
  5 12  1  0
  5 13  2  0
  6 14  1  0
  6  9  1  1
  7 15  1  0
 10 11  1  0
 11 16  1  6
 12 17  1  0
 14 18  1  0
 14 19  1  6
 15 20  1  1
 18 15  1  1
 16 21  1  0
 18 22  1  0
 19 23  1  0
 21 24  1  0
 22 25  1  0
 22 26  1  0
 22 27  1  1
 23 25  1  0
 25 28  2  0
 26 29  2  0
 28 30  1  0
 29 30  1  0
 30 31  2  0
M  END
>  <Formula>  (755) 
C25H34O6

>  <FW>  (755) 
430.5339

>  <DSSTox_CID>  (755) 
202

>  <NR-AR>  (755) 
1

>  <NR-AR-LBD>  (755) 
1

>  <NR-ER-LBD>  (755) 
0

>  <SR-ARE>  (755) 
1

>  <SR-ATAD5>  (755) 
0

>  <SR-HSE>  (755) 
0

>  <SR-MMP>  (755) 
0

>  <SR-p53>  (755) 
0

$$$$
NCGC00255784-01
     RDKit          2D

 31 34  0  0  1  0  0  0  0  0999 V2000
    4.3181   -1.3620    0.0000 C   0  0  0  0  0  0  0  0  0  0  0  0
    5.1152   -1.0997    0.0000 C   0  0  0  0  0  0  0  0  0  0  0  0
    2.1792   -2.5929    0.0000 C   0  0  0  0  0  0  0  0  0  0  0  0
    4.3181   -2.1893    0.0000 C   0  0  0  0  0  0  0  0  0  0  0  0
    2.1792   -3.4303    0.0000 C   0  0  0  0  0  0  0  0  0  0  0  0
    2.8854   -2.1893    0.0000 C   0  0  0  0  0  0  0  0  0  0  0  0
    3.6119   -2.5929    0.0000 C   0  0  0  0  0  0  0  0  0  0  0  0
    1.4629   -3.8338    0.0000 C   0  0  0  0  0  0  0  0  0  0  0  0
    3.6119   -0.9383    0.0000 C   0  0  0  0  0  0  0  0  0  0  0  0
    5.5994   -1.7757    0.0000 C   0  0  0  0  0  0  0  0  0  0  0  0
    5.8617   -1.0997    0.0000 O   0  0  0  0  0  0  0  0  0  0  0  0
    5.1051   -2.4416    0.0000 C   0  0  0  0  0  0  0  0  0  0  0  0
    2.8854   -1.3620    0.0000 C   0  0  0  0  0  0  0  0  0  0  0  0
    1.4629   -2.1893    0.0000 C   0  0  0  0  0  0  0  0  0  0  0  0
    5.1152   -0.3632    0.0000 C   0  0  0  0  0  0  0  0  0  0  0  0
    3.6119   -3.4303    0.0000 C   0  0  0  0  0  0  0  0  0  0  0  0
    6.5882   -1.5133    0.0000 C   0  0  0  0  0  0  0  0  0  0  0  0
    2.8854   -3.8338    0.0000 C   0  0  0  0  0  0  0  0  0  0  0  0
    0.7365   -3.4303    0.0000 C   0  0  0  0  0  0  0  0  0  0  0  0
    6.5882   -2.3205    0.0000 O   0  0  0  0  0  0  0  0  0  0  0  0
    5.7508    0.0000    0.0000 O   0  0  0  0  0  0  0  0  0  0  0  0
    0.0000   -3.8338    0.0000 O   0  0  0  0  0  0  0  0  0  0  0  0
    0.7365   -2.5929    0.0000 C   0  0  0  0  0  0  0  0  0  0  0  0
    4.3181   -0.5246    0.0000 C   0  0  0  0  0  0  0  0  0  0  0  0
    2.1792   -1.7757    0.0000 C   0  0  0  0  0  0  0  0  0  0  0  0
    7.2944   -1.1098    0.0000 C   0  0  0  0  0  0  0  0  0  0  0  0
    4.4795    0.0000    0.0000 C   0  0  0  0  0  0  0  0  0  0  0  0
    7.9805   -1.5234    0.0000 C   0  0  0  0  0  0  0  0  0  0  0  0
    9.3929   -1.5335    0.0000 C   0  0  0  0  0  0  0  0  0  0  0  0
    8.6968   -1.1199    0.0000 C   0  0  0  0  0  0  0  0  0  0  0  0
   10.0891   -1.1300    0.0000 C   0  0  0  0  0  0  0  0  0  0  0  0
  1  2  1  0
  1  4  1  0
  1  9  1  0
  1 24  1  1
  2 10  1  0
  2 11  1  6
  2 15  1  0
  3  6  1  0
  3  5  1  0
  3 14  1  0
  3 25  1  1
  4  7  1  0
  4 12  1  1
  5  8  2  0
  5 18  1  0
  6 13  1  1
  6  7  1  0
  7 16  1  6
  8 19  1  0
  9 13  1  0
 10 12  1  0
 11 17  1  0
 14 23  1  0
 15 21  2  0
 15 27  1  0
 16 18  1  0
 17 20  2  0
 17 26  1  0
 19 23  1  0
 19 22  2  0
 26 28  1  0
 28 30  1  0
 29 30  1  0
 29 31  1  0
M  END
>  <Formula>  (756) 
C27H40O4

>  <FW>  (756) 
428.6041

>  <DSSTox_CID>  (756) 
23915

>  <NR-ER-LBD>  (756) 
0

>  <NR-AhR>  (756) 
0

>  <SR-ARE>  (756) 
1

>  <SR-ATAD5>  (756) 
0

>  <SR-HSE>  (756) 
1

>  <SR-p53>  (756) 
0

$$$$
NCGC00159428-02
     RDKit          2D

 54 61  0  0  1  0  0  0  0  0999 V2000
    8.6378   -5.6722    0.0000 O   0  0  0  0  0  0  0  0  0  0  0  0
    7.9180   -5.2691    0.0000 C   0  0  0  0  0  0  0  0  0  0  0  0
    7.1982   -5.6722    0.0000 C   0  0  0  0  0  0  0  0  0  0  0  0
    7.9180   -4.4197    0.0000 O   0  0  0  0  0  0  0  0  0  0  0  0
    6.4784   -5.2691    0.0000 C   0  0  0  0  0  0  0  0  0  0  0  0
    7.1982   -4.0166    0.0000 C   0  0  0  0  0  0  0  0  0  0  0  0
    6.4784   -4.4197    0.0000 C   0  0  0  0  0  0  0  0  0  0  0  0
    5.7586   -4.0166    0.0000 O   0  0  0  0  0  0  0  0  0  0  0  0
    5.0388   -4.4197    0.0000 C   0  0  0  0  0  0  0  0  0  0  0  0
    5.0388   -5.2691    0.0000 O   0  0  0  0  0  0  0  0  0  0  0  0
    4.3189   -4.0166    0.0000 C   0  0  0  0  0  0  0  0  0  0  0  0
    4.3189   -5.6722    0.0000 C   0  0  0  0  0  0  0  0  0  0  0  0
    3.5991   -4.4197    0.0000 C   0  0  0  0  0  0  0  0  0  0  0  0
    3.5991   -5.2691    0.0000 C   0  0  0  0  0  0  0  0  0  0  0  0
    2.8793   -5.6722    0.0000 O   0  0  0  0  0  0  0  0  0  0  0  0
    2.1594   -5.2691    0.0000 C   0  0  0  0  0  0  0  0  0  0  0  0
    1.4396   -5.6722    0.0000 C   0  0  0  0  0  0  0  0  0  0  0  0
    2.1594   -4.4197    0.0000 O   0  0  0  0  0  0  0  0  0  0  0  0
    0.7198   -5.2691    0.0000 C   0  0  0  0  0  0  0  0  0  0  0  0
    1.4396   -4.0166    0.0000 C   0  0  0  0  0  0  0  0  0  0  0  0
    0.7198   -4.4197    0.0000 C   0  0  0  0  0  0  0  0  0  0  0  0
    5.7586   -5.6722    0.0000 O   0  0  0  0  0  0  0  0  0  0  0  0
    2.8793   -4.0166    0.0000 O   0  0  0  0  0  0  0  0  0  0  0  0
    0.0000   -4.0166    0.0000 O   0  0  0  0  0  0  0  0  0  0  0  0
    0.0000   -5.6722    0.0000 O   0  0  0  0  0  0  0  0  0  0  0  0
    1.4396   -3.1960    0.0000 C   0  0  0  0  0  0  0  0  0  0  0  0
    4.3189   -6.5071    0.0000 C   0  0  0  0  0  0  0  0  0  0  0  0
    7.1982   -3.1960    0.0000 C   0  0  0  0  0  0  0  0  0  0  0  0
    9.3576   -5.2691    0.0000 C   0  0  0  0  0  0  0  0  0  0  0  0
    9.3576   -4.4197    0.0000 C   0  0  0  0  0  0  0  0  0  0  0  0
   10.0774   -5.6722    0.0000 C   0  0  0  0  0  0  0  0  0  0  0  0
   10.0774   -4.0166    0.0000 C   0  0  0  0  0  0  0  0  0  0  0  0
   10.7973   -5.2691    0.0000 C   0  0  0  0  0  0  0  0  0  0  0  0
   10.7973   -4.4341    0.0000 C   0  0  0  0  0  0  0  0  0  0  0  0
   11.5171   -5.6722    0.0000 C   0  0  0  0  0  0  0  0  0  0  0  0
   12.2369   -5.2691    0.0000 C   0  0  0  0  0  0  0  0  0  0  0  0
   11.5171   -4.0166    0.0000 C   0  0  0  0  0  0  0  0  0  0  0  0
   12.2369   -4.4197    0.0000 C   0  0  0  0  0  0  0  0  0  0  0  0
   11.5171   -3.1960    0.0000 C   0  0  0  0  0  0  0  0  0  0  0  0
   12.2369   -2.7641    0.0000 C   0  0  0  0  0  0  0  0  0  0  0  0
   12.9568   -4.0166    0.0000 C   0  0  0  0  0  0  0  0  0  0  0  0
   12.9568   -3.1960    0.0000 C   0  0  0  0  0  0  0  0  0  0  0  0
   14.3964   -4.0166    0.0000 C   0  0  0  0  0  0  0  0  0  0  0  0
   13.6766   -2.7641    0.0000 C   0  0  0  0  0  0  0  0  0  0  0  0
   14.3964   -3.1960    0.0000 C   0  0  0  0  0  0  0  0  0  0  0  0
   13.6766   -1.9435    0.0000 C   0  0  0  0  0  0  0  0  0  0  0  0
   12.9999   -1.4684    0.0000 C   0  0  0  0  0  0  0  0  0  0  0  0
   14.3388   -1.4684    0.0000 C   0  0  0  0  0  0  0  0  0  0  0  0
   13.2591   -0.6622    0.0000 C   0  0  0  0  0  0  0  0  0  0  0  0
   14.0941   -0.6622    0.0000 O   0  0  0  0  0  0  0  0  0  0  0  0
   10.7973   -3.5991    0.0000 C   0  0  0  0  0  0  0  0  0  0  0  0
   12.9568   -4.8660    0.0000 O   0  0  0  0  0  0  0  0  0  0  0  0
   12.9568   -2.3610    0.0000 C   0  0  0  0  0  0  0  0  0  0  0  0
   12.7552    0.0000    0.0000 O   0  0  0  0  0  0  0  0  0  0  0  0
  2  1  1  1
 29  1  1  1
  2  3  1  0
  2  4  1  0
  3  5  1  0
  4  6  1  0
  5  7  1  0
  5 22  1  6
  6  7  1  0
  6 28  1  1
  7  8  1  6
  9  8  1  6
  9 10  1  0
  9 11  1  0
 10 12  1  0
 11 13  1  0
 12 14  1  0
 12 27  1  6
 13 14  1  0
 13 23  1  1
 14 15  1  1
 16 15  1  1
 16 17  1  0
 16 18  1  0
 17 19  1  0
 18 20  1  0
 19 21  1  0
 19 25  1  6
 20 21  1  0
 20 26  1  1
 21 24  1  6
 29 30  1  0
 29 31  1  0
 30 32  1  0
 33 31  1  6
 32 34  1  0
 33 35  1  0
 33 34  1  0
 34 37  1  0
 34 51  1  1
 35 36  1  0
 38 36  1  6
 37 39  1  1
 37 38  1  0
 38 41  1  0
 39 40  1  0
 40 42  1  0
 41 43  1  0
 41 42  1  0
 41 52  1  1
 42 44  1  0
 42 53  1  1
 43 45  1  0
 44 45  1  1
 44 46  1  0
 46 47  2  0
 46 48  1  0
 47 49  1  0
 48 50  1  0
 49 50  1  0
 49 54  2  0
M  END
>  <Formula>  (757) 
C41H64O13

>  <FW>  (757) 
764.9391

>  <DSSTox_CID>  (757) 
2933

>  <NR-AR-LBD>  (757) 
1

>  <SR-MMP>  (757) 
1

>  <SR-p53>  (757) 
1

$$$$
NCGC00159441-02
     RDKit          2D

 66 74  0  0  1  0  0  0  0  0999 V2000
   16.1657   -3.9317    0.0000 C   0  0  0  0  0  0  0  0  0  0  0  0
   16.1657   -3.0717    0.0000 C   0  0  0  0  0  0  0  0  0  0  0  0
   14.6913   -3.9317    0.0000 C   0  0  0  0  0  0  0  0  0  0  0  0
   13.9717   -4.3179    0.0000 C   0  0  0  0  0  0  0  0  0  0  0  0
   15.4110   -4.3179    0.0000 C   0  0  0  0  0  0  0  0  0  0  0  0
   16.8502   -2.7382    0.0000 C   0  0  0  0  0  0  0  0  0  0  0  0
   15.4110   -2.7382    0.0000 C   0  0  0  0  0  0  0  0  0  0  0  0
   16.8502   -1.8956    0.0000 C   0  0  0  0  0  0  0  0  0  0  0  0
   14.6913   -3.0717    0.0000 C   0  0  0  0  0  0  0  0  0  0  0  0
   16.1832   -1.4217    0.0000 C   0  0  0  0  0  0  0  0  0  0  0  0
   13.9717   -5.1428    0.0000 C   0  0  0  0  0  0  0  0  0  0  0  0
   17.5523   -3.9317    0.0000 C   0  0  0  0  0  0  0  0  0  0  0  0
   16.3763   -0.6143    0.0000 C   0  0  0  0  0  0  0  0  0  0  0  0
   17.2715   -0.6143    0.0000 O   0  0  0  0  0  0  0  0  0  0  0  0
   17.5523   -3.0717    0.0000 C   0  0  0  0  0  0  0  0  0  0  0  0
   13.2871   -3.9317    0.0000 C   0  0  0  0  0  0  0  0  0  0  0  0
   15.4110   -5.1428    0.0000 C   0  0  0  0  0  0  0  0  0  0  0  0
   17.5523   -1.3340    0.0000 C   0  0  0  0  0  0  0  0  0  0  0  0
   11.9180   -5.1779    0.0000 O   0  0  0  0  0  0  0  0  0  0  0  0
   13.2871   -5.5114    0.0000 C   0  0  0  0  0  0  0  0  0  0  0  0
   14.6913   -5.5114    0.0000 C   0  0  0  0  0  0  0  0  0  0  0  0
   16.1657   -4.8795    0.0000 O   0  0  0  0  0  0  0  0  0  0  0  0
   15.8673    0.0000    0.0000 O   0  0  0  0  0  0  0  0  0  0  0  0
   12.5675   -5.1428    0.0000 C   0  0  0  0  0  0  0  0  0  0  0  0
   16.1657   -2.1940    0.0000 C   0  0  0  0  0  0  0  0  0  0  0  0
   15.4110   -1.8956    0.0000 O   0  0  0  0  0  0  0  0  0  0  0  0
   12.5675   -4.3179    0.0000 C   0  0  0  0  0  0  0  0  0  0  0  0
   13.9892   -3.6860    0.0000 C   0  0  0  0  0  0  0  0  0  0  0  0
   11.4265   -6.0380    0.0000 C   0  0  0  0  0  0  0  0  0  0  0  0
   11.0229   -6.7577    0.0000 C   0  0  0  0  0  0  0  0  0  0  0  0
   10.9878   -5.3183    0.0000 O   0  0  0  0  0  0  0  0  0  0  0  0
   10.1804   -6.7752    0.0000 C   0  0  0  0  0  0  0  0  0  0  0  0
   10.1628   -5.3359    0.0000 C   0  0  0  0  0  0  0  0  0  0  0  0
    9.7591   -6.0555    0.0000 C   0  0  0  0  0  0  0  0  0  0  0  0
    9.7767   -7.4773    0.0000 O   0  0  0  0  0  0  0  0  0  0  0  0
    8.9342   -6.0731    0.0000 O   0  0  0  0  0  0  0  0  0  0  0  0
    9.7415   -4.6338    0.0000 C   0  0  0  0  0  0  0  0  0  0  0  0
    8.4427   -6.9507    0.0000 C   0  0  0  0  0  0  0  0  0  0  0  0
    8.0390   -7.6704    0.0000 C   0  0  0  0  0  0  0  0  0  0  0  0
    8.0038   -6.2486    0.0000 O   0  0  0  0  0  0  0  0  0  0  0  0
    7.2140   -7.6704    0.0000 C   0  0  0  0  0  0  0  0  0  0  0  0
    7.1965   -6.2486    0.0000 C   0  0  0  0  0  0  0  0  0  0  0  0
    6.7927   -6.9859    0.0000 C   0  0  0  0  0  0  0  0  0  0  0  0
    6.8103   -8.3900    0.0000 O   0  0  0  0  0  0  0  0  0  0  0  0
    5.9678   -6.9859    0.0000 O   0  0  0  0  0  0  0  0  0  0  0  0
    6.7752   -5.5465    0.0000 C   0  0  0  0  0  0  0  0  0  0  0  0
    5.4587   -7.8459    0.0000 C   0  0  0  0  0  0  0  0  0  0  0  0
    5.0726   -8.5656    0.0000 C   0  0  0  0  0  0  0  0  0  0  0  0
    5.0375   -7.1438    0.0000 O   0  0  0  0  0  0  0  0  0  0  0  0
    4.2476   -8.5831    0.0000 C   0  0  0  0  0  0  0  0  0  0  0  0
    4.2126   -7.1438    0.0000 C   0  0  0  0  0  0  0  0  0  0  0  0
    3.8264   -7.8635    0.0000 C   0  0  0  0  0  0  0  0  0  0  0  0
    3.8440   -9.3028    0.0000 O   0  0  0  0  0  0  0  0  0  0  0  0
    3.0014   -7.8810    0.0000 O   0  0  0  0  0  0  0  0  0  0  0  0
    3.7913   -6.4417    0.0000 C   0  0  0  0  0  0  0  0  0  0  0  0
    2.5100   -8.7586    0.0000 C   0  0  0  0  0  0  0  0  0  0  0  0
    2.1063   -9.4782    0.0000 C   0  0  0  0  0  0  0  0  0  0  0  0
    2.0887   -8.0565    0.0000 O   0  0  0  0  0  0  0  0  0  0  0  0
    1.2813   -9.4958    0.0000 C   0  0  0  0  0  0  0  0  0  0  0  0
    1.2287   -8.0565    0.0000 C   0  0  0  0  0  0  0  0  0  0  0  0
    0.8425   -8.7762    0.0000 C   0  0  0  0  0  0  0  0  0  0  0  0
    0.8776  -10.2154    0.0000 O   0  0  0  0  0  0  0  0  0  0  0  0
    0.0176   -8.7937    0.0000 O   0  0  0  0  0  0  0  0  0  0  0  0
    0.8249   -7.3545    0.0000 C   0  0  0  0  0  0  0  0  0  0  0  0
    2.5100  -10.1804    0.0000 O   0  0  0  0  0  0  0  0  0  0  0  0
    0.0000   -7.3720    0.0000 O   0  0  0  0  0  0  0  0  0  0  0  0
  1  2  1  0
  1  5  1  0
  1 12  1  0
  1 22  1  1
  2  6  1  0
  2  7  1  0
  2 25  1  1
  3  5  1  0
  3  4  1  0
  3  9  1  1
  4 16  1  0
  4 28  1  1
  4 11  1  0
  5 17  1  6
  6  8  1  0
  6 15  1  1
  7 26  1  1
  7  9  1  0
  8 10  2  0
  8 18  1  0
 10 13  1  0
 11 21  1  6
 11 20  1  0
 12 15  1  0
 13 23  2  0
 13 14  1  0
 14 18  1  0
 16 27  1  0
 17 21  1  0
 24 19  1  1
 29 19  1  1
 20 24  1  0
 24 27  1  0
 29 30  1  0
 29 31  1  0
 30 32  1  0
 31 33  1  0
 32 34  1  0
 32 35  1  6
 33 34  1  0
 33 37  1  1
 34 36  1  6
 38 36  1  1
 38 39  1  0
 38 40  1  0
 39 41  1  0
 40 42  1  0
 41 43  1  0
 41 44  1  6
 42 43  1  0
 42 46  1  1
 43 45  1  6
 47 45  1  1
 47 48  1  0
 47 49  1  0
 48 50  1  0
 49 51  1  0
 50 52  1  0
 50 53  1  6
 51 52  1  0
 51 55  1  1
 52 54  1  6
 56 54  1  1
 56 57  1  0
 56 58  1  0
 57 59  1  0
 57 65  1  6
 58 60  1  0
 59 61  1  0
 59 62  1  1
 60 61  1  0
 60 64  1  1
 61 63  1  6
 64 66  1  0
M  END
>  <Formula>  (758) 
C47H74O19

>  <FW>  (758) 
943.0791

>  <DSSTox_CID>  (758) 
2897

>  <NR-ER-LBD>  (758) 
0

>  <NR-AhR>  (758) 
0

>  <SR-MMP>  (758) 
1

$$$$
NCGC00168746-01
     RDKit          2D

 56 63  0  0  1  0  0  0  0  0999 V2000
    7.8936   -2.6151    0.0000 O   0  0  0  0  0  0  0  0  0  0  0  0
    7.8936   -3.4384    0.0000 C   0  0  0  0  0  0  0  0  0  0  0  0
    8.6200   -3.8581    0.0000 C   0  0  0  0  0  0  0  0  0  0  0  0
    8.6200   -4.6813    0.0000 C   0  0  0  0  0  0  0  0  0  0  0  0
    7.8936   -5.1010    0.0000 O   0  0  0  0  0  0  0  0  0  0  0  0
    7.1834   -4.6813    0.0000 C   0  0  0  0  0  0  0  0  0  0  0  0
    6.4570   -5.1010    0.0000 C   0  0  0  0  0  0  0  0  0  0  0  0
    7.1834   -3.8581    0.0000 C   0  0  0  0  0  0  0  0  0  0  0  0
    6.4570   -3.4384    0.0000 O   0  0  0  0  0  0  0  0  0  0  0  0
    5.7467   -3.8581    0.0000 C   0  0  0  0  0  0  0  0  0  0  0  0
    5.7467   -4.6813    0.0000 O   0  0  0  0  0  0  0  0  0  0  0  0
    5.0203   -5.1010    0.0000 C   0  0  0  0  0  0  0  0  0  0  0  0
    5.0203   -5.9243    0.0000 C   0  0  0  0  0  0  0  0  0  0  0  0
    4.3100   -4.6813    0.0000 C   0  0  0  0  0  0  0  0  0  0  0  0
    3.5836   -5.1010    0.0000 O   0  0  0  0  0  0  0  0  0  0  0  0
    2.8734   -4.6813    0.0000 C   0  0  0  0  0  0  0  0  0  0  0  0
    2.1469   -5.1010    0.0000 C   0  0  0  0  0  0  0  0  0  0  0  0
    1.4367   -4.6813    0.0000 C   0  0  0  0  0  0  0  0  0  0  0  0
    0.7103   -5.1010    0.0000 O   0  0  0  0  0  0  0  0  0  0  0  0
    1.4367   -3.8581    0.0000 C   0  0  0  0  0  0  0  0  0  0  0  0
    0.7103   -3.4384    0.0000 O   0  0  0  0  0  0  0  0  0  0  0  0
    0.0000   -3.8581    0.0000 C   0  0  0  0  0  0  0  0  0  0  0  0
    2.1469   -3.4384    0.0000 C   0  0  0  0  0  0  0  0  0  0  0  0
    2.1469   -2.6151    0.0000 C   0  0  0  0  0  0  0  0  0  0  0  0
    2.8734   -3.8581    0.0000 O   0  0  0  0  0  0  0  0  0  0  0  0
    4.3100   -3.8581    0.0000 C   0  0  0  0  0  0  0  0  0  0  0  0
    3.5836   -3.4384    0.0000 O   0  0  0  0  0  0  0  0  0  0  0  0
    5.0203   -3.4384    0.0000 C   0  0  0  0  0  0  0  0  0  0  0  0
    9.3303   -5.1010    0.0000 O   0  0  0  0  0  0  0  0  0  0  0  0
   10.0568   -4.6813    0.0000 C   0  0  0  0  0  0  0  0  0  0  0  0
   10.0568   -3.8581    0.0000 C   0  0  0  0  0  0  0  0  0  0  0  0
   10.7670   -3.4384    0.0000 C   0  0  0  0  0  0  0  0  0  0  0  0
   11.4934   -3.8581    0.0000 C   0  0  0  0  0  0  0  0  0  0  0  0
   11.5095   -2.9379    0.0000 C   0  0  0  0  0  0  0  0  0  0  0  0
   11.4934   -4.6813    0.0000 C   0  0  0  0  0  0  0  0  0  0  0  0
   12.2037   -5.1010    0.0000 C   0  0  0  0  0  0  0  0  0  0  0  0
   12.9139   -4.6813    0.0000 C   0  0  0  0  0  0  0  0  0  0  0  0
   12.9139   -3.8581    0.0000 C   0  0  0  0  0  0  0  0  0  0  0  0
   12.2037   -3.4384    0.0000 C   0  0  0  0  0  0  0  0  0  0  0  0
   12.2037   -2.6151    0.0000 C   0  0  0  0  0  0  0  0  0  0  0  0
   12.9139   -2.1954    0.0000 C   0  0  0  0  0  0  0  0  0  0  0  0
   12.9139   -1.3721    0.0000 O   0  0  0  0  0  0  0  0  0  0  0  0
   13.6404   -2.6151    0.0000 C   0  0  0  0  0  0  0  0  0  0  0  0
   13.7211   -1.8080    0.0000 C   0  0  0  0  0  0  0  0  0  0  0  0
   13.6404   -3.4384    0.0000 C   0  0  0  0  0  0  0  0  0  0  0  0
   13.6726   -4.3907    0.0000 O   0  0  0  0  0  0  0  0  0  0  0  0
   14.4313   -3.6966    0.0000 C   0  0  0  0  0  0  0  0  0  0  0  0
   14.9156   -3.0186    0.0000 C   0  0  0  0  0  0  0  0  0  0  0  0
   14.4313   -2.3568    0.0000 C   0  0  0  0  0  0  0  0  0  0  0  0
   14.6896   -1.5658    0.0000 C   0  0  0  0  0  0  0  0  0  0  0  0
   14.1892   -0.8879    0.0000 C   0  0  0  0  0  0  0  0  0  0  0  0
   14.6896   -0.2260    0.0000 O   0  0  0  0  0  0  0  0  0  0  0  0
   15.4644   -1.3076    0.0000 C   0  0  0  0  0  0  0  0  0  0  0  0
   15.4644   -0.4843    0.0000 C   0  0  0  0  0  0  0  0  0  0  0  0
   16.1424    0.0000    0.0000 O   0  0  0  0  0  0  0  0  0  0  0  0
   10.7670   -5.1010    0.0000 C   0  0  0  0  0  0  0  0  0  0  0  0
  2  1  1  1
  2  3  1  0
  2  8  1  0
  3  4  1  0
  4  5  1  0
  4 29  1  6
  5  6  1  0
  6  7  1  6
  6  8  1  0
  8  9  1  1
 10  9  1  6
 10 11  1  0
 10 28  1  0
 11 12  1  0
 12 13  1  6
 12 14  1  0
 14 15  1  1
 14 26  1  0
 16 15  1  1
 16 17  1  0
 16 25  1  0
 17 18  1  0
 18 19  1  6
 18 20  1  0
 20 21  1  6
 20 23  1  0
 21 22  1  0
 23 24  1  1
 23 25  1  0
 26 27  1  1
 26 28  1  0
 30 29  1  1
 30 31  1  0
 30 56  1  0
 31 32  1  0
 32 33  1  0
 33 34  1  1
 33 35  1  0
 33 39  1  0
 35 36  1  6
 35 56  1  0
 36 37  1  0
 38 37  1  6
 38 39  1  0
 38 45  1  0
 39 40  1  1
 40 41  1  0
 41 42  1  1
 41 43  1  0
 43 44  1  1
 43 45  1  0
 43 49  1  0
 45 46  1  1
 45 47  1  0
 47 48  1  0
 49 48  1  1
 49 50  1  0
 50 51  1  0
 50 53  2  0
 51 52  1  0
 52 54  1  0
 53 54  1  0
 54 55  2  0
M  END
>  <Formula>  (759) 
C42H66O14

>  <FW>  (759) 
794.9650

>  <DSSTox_CID>  (759) 
3294

>  <NR-Aromatase>  (759) 
1

>  <NR-ER-LBD>  (759) 
0

>  <SR-MMP>  (759) 
1

>  <SR-p53>  (759) 
0

$$$$
NCGC00013319-01
     RDKit          2D

 41 46  0  0  1  0  0  0  0  0999 V2000
    7.1998   -3.1445    0.0000 C   0  0  0  0  0  0  0  0  0  0  0  0
    7.1998   -3.9607    0.0000 C   0  0  0  0  0  0  0  0  0  0  0  0
    5.7564   -3.9607    0.0000 C   0  0  0  0  0  0  0  0  0  0  0  0
    6.4867   -4.3645    0.0000 C   0  0  0  0  0  0  0  0  0  0  0  0
    5.0433   -4.3645    0.0000 C   0  0  0  0  0  0  0  0  0  0  0  0
    6.4867   -2.7321    0.0000 C   0  0  0  0  0  0  0  0  0  0  0  0
    5.7564   -3.1445    0.0000 C   0  0  0  0  0  0  0  0  0  0  0  0
    6.4867   -5.1893    0.0000 C   0  0  0  0  0  0  0  0  0  0  0  0
    5.0433   -5.1893    0.0000 C   0  0  0  0  0  0  0  0  0  0  0  0
    5.7564   -5.6275    0.0000 C   0  0  0  0  0  0  0  0  0  0  0  0
    7.1998   -2.2940    0.0000 C   0  0  0  0  0  0  0  0  0  0  0  0
    5.0433   -3.5483    0.0000 C   0  0  0  0  0  0  0  0  0  0  0  0
    4.3387   -3.9607    0.0000 C   0  0  0  0  0  0  0  0  0  0  0  0
    4.3387   -5.6275    0.0000 C   0  0  0  0  0  0  0  0  0  0  0  0
    3.6170   -4.3645    0.0000 C   0  0  0  0  0  0  0  0  0  0  0  0
    3.6170   -5.1893    0.0000 C   0  0  0  0  0  0  0  0  0  0  0  0
    7.1998   -4.8027    0.0000 O   0  0  0  0  0  0  0  0  0  0  0  0
    8.5915   -3.9607    0.0000 C   0  0  0  0  0  0  0  0  0  0  0  0
    7.8956   -2.7321    0.0000 C   0  0  0  0  0  0  0  0  0  0  0  0
    8.5915   -3.1445    0.0000 C   0  0  0  0  0  0  0  0  0  0  0  0
    7.8956   -1.9159    0.0000 C   0  0  0  0  0  0  0  0  0  0  0  0
    7.2255   -1.4348    0.0000 C   0  0  0  0  0  0  0  0  0  0  0  0
    8.5658   -1.4348    0.0000 C   0  0  0  0  0  0  0  0  0  0  0  0
    7.4919   -0.6530    0.0000 C   0  0  0  0  0  0  0  0  0  0  0  0
    8.2995   -0.6530    0.0000 O   0  0  0  0  0  0  0  0  0  0  0  0
    6.9935    0.0000    0.0000 O   0  0  0  0  0  0  0  0  0  0  0  0
    5.0347   -2.7321    0.0000 O   0  0  0  0  0  0  0  0  0  0  0  0
    4.3387   -3.1360    0.0000 O   0  0  0  0  0  0  0  0  0  0  0  0
    3.6256   -3.5483    0.0000 O   0  0  0  0  0  0  0  0  0  0  0  0
    2.8868   -5.6533    0.0000 O   0  0  0  0  0  0  0  0  0  0  0  0
    2.1651   -5.2322    0.0000 C   0  0  0  0  0  0  0  0  0  0  0  0
    1.4434   -5.6447    0.0000 C   0  0  0  0  0  0  0  0  0  0  0  0
    2.1651   -4.3903    0.0000 O   0  0  0  0  0  0  0  0  0  0  0  0
    0.7217   -5.2151    0.0000 C   0  0  0  0  0  0  0  0  0  0  0  0
    1.4520   -3.9607    0.0000 C   0  0  0  0  0  0  0  0  0  0  0  0
    0.7217   -4.3817    0.0000 C   0  0  0  0  0  0  0  0  0  0  0  0
    1.4520   -3.1360    0.0000 C   0  0  0  0  0  0  0  0  0  0  0  0
    0.0000   -3.9607    0.0000 O   0  0  0  0  0  0  0  0  0  0  0  0
    0.0000   -5.6361    0.0000 O   0  0  0  0  0  0  0  0  0  0  0  0
    1.4434   -6.4695    0.0000 O   0  0  0  0  0  0  0  0  0  0  0  0
    5.0433   -6.0227    0.0000 O   0  0  0  0  0  0  0  0  0  0  0  0
  1  6  1  0
  1 11  1  1
  1  2  1  0
  1 19  1  0
  2  4  1  0
  2 17  1  1
  2 18  1  0
  3  7  1  1
  3  5  1  0
  3  4  1  0
  4  8  1  6
  5  9  1  0
  5 12  1  1
  5 13  1  0
  6  7  1  0
  7 27  1  6
  8 10  1  0
  9 14  1  0
  9 10  1  0
  9 41  1  1
 12 28  1  0
 13 15  1  0
 13 29  1  1
 14 16  1  0
 15 16  1  0
 16 30  1  1
 18 20  1  0
 19 20  1  1
 19 21  1  0
 21 22  2  0
 21 23  1  0
 22 24  1  0
 23 25  1  0
 24 25  1  0
 24 26  2  0
 31 30  1  1
 31 32  1  0
 31 33  1  0
 32 34  1  0
 32 40  1  6
 33 35  1  0
 34 36  1  0
 34 39  1  6
 35 36  1  0
 35 37  1  6
 36 38  1  1
M  END
>  <Formula>  (760) 
C29H44O12

>  <FW>  (760) 
584.6525

>  <DSSTox_CID>  (760) 
23765

>  <NR-Aromatase>  (760) 
1

>  <NR-AR>  (760) 
0

>  <NR-AR-LBD>  (760) 
1

>  <SR-MMP>  (760) 
1

>  <SR-p53>  (760) 
0

$$$$
NCGC00163473-01
     RDKit          2D

 41 46  0  0  1  0  0  0  0  0999 V2000
    7.1998   -3.1445    0.0000 C   0  0  0  0  0  0  0  0  0  0  0  0
    7.1998   -3.9607    0.0000 C   0  0  0  0  0  0  0  0  0  0  0  0
    5.7564   -3.9607    0.0000 C   0  0  0  0  0  0  0  0  0  0  0  0
    6.4867   -4.3645    0.0000 C   0  0  0  0  0  0  0  0  0  0  0  0
    5.0433   -4.3645    0.0000 C   0  0  0  0  0  0  0  0  0  0  0  0
    6.4867   -2.7321    0.0000 C   0  0  0  0  0  0  0  0  0  0  0  0
    5.7564   -3.1445    0.0000 C   0  0  0  0  0  0  0  0  0  0  0  0
    6.4867   -5.1893    0.0000 C   0  0  0  0  0  0  0  0  0  0  0  0
    5.0433   -5.1893    0.0000 C   0  0  0  0  0  0  0  0  0  0  0  0
    5.7564   -5.6275    0.0000 C   0  0  0  0  0  0  0  0  0  0  0  0
    7.1998   -2.2940    0.0000 C   0  0  0  0  0  0  0  0  0  0  0  0
    5.0433   -3.5483    0.0000 C   0  0  0  0  0  0  0  0  0  0  0  0
    4.3387   -3.9607    0.0000 C   0  0  0  0  0  0  0  0  0  0  0  0
    4.3387   -5.6275    0.0000 C   0  0  0  0  0  0  0  0  0  0  0  0
    3.6170   -4.3645    0.0000 C   0  0  0  0  0  0  0  0  0  0  0  0
    3.6170   -5.1893    0.0000 C   0  0  0  0  0  0  0  0  0  0  0  0
    7.1998   -4.8027    0.0000 O   0  0  0  0  0  0  0  0  0  0  0  0
    8.5915   -3.9607    0.0000 C   0  0  0  0  0  0  0  0  0  0  0  0
    7.8956   -2.7321    0.0000 C   0  0  0  0  0  0  0  0  0  0  0  0
    8.5915   -3.1445    0.0000 C   0  0  0  0  0  0  0  0  0  0  0  0
    7.8956   -1.9159    0.0000 C   0  0  0  0  0  0  0  0  0  0  0  0
    7.2255   -1.4348    0.0000 C   0  0  0  0  0  0  0  0  0  0  0  0
    8.5658   -1.4348    0.0000 C   0  0  0  0  0  0  0  0  0  0  0  0
    7.4919   -0.6530    0.0000 C   0  0  0  0  0  0  0  0  0  0  0  0
    8.2995   -0.6530    0.0000 O   0  0  0  0  0  0  0  0  0  0  0  0
    6.9935    0.0000    0.0000 O   0  0  0  0  0  0  0  0  0  0  0  0
    5.0347   -2.7321    0.0000 O   0  0  0  0  0  0  0  0  0  0  0  0
    4.3387   -3.1360    0.0000 O   0  0  0  0  0  0  0  0  0  0  0  0
    3.6256   -3.5483    0.0000 O   0  0  0  0  0  0  0  0  0  0  0  0
    2.8868   -5.6533    0.0000 O   0  0  0  0  0  0  0  0  0  0  0  0
    2.1651   -5.2322    0.0000 C   0  0  0  0  0  0  0  0  0  0  0  0
    1.4434   -5.6447    0.0000 C   0  0  0  0  0  0  0  0  0  0  0  0
    2.1651   -4.3903    0.0000 O   0  0  0  0  0  0  0  0  0  0  0  0
    0.7217   -5.2151    0.0000 C   0  0  0  0  0  0  0  0  0  0  0  0
    1.4520   -3.9607    0.0000 C   0  0  0  0  0  0  0  0  0  0  0  0
    0.7217   -4.3817    0.0000 C   0  0  0  0  0  0  0  0  0  0  0  0
    1.4520   -3.1360    0.0000 C   0  0  0  0  0  0  0  0  0  0  0  0
    0.0000   -3.9607    0.0000 O   0  0  0  0  0  0  0  0  0  0  0  0
    0.0000   -5.6361    0.0000 O   0  0  0  0  0  0  0  0  0  0  0  0
    1.4434   -6.4695    0.0000 O   0  0  0  0  0  0  0  0  0  0  0  0
    5.0433   -6.0227    0.0000 O   0  0  0  0  0  0  0  0  0  0  0  0
  1  6  1  0
  1 11  1  1
  1  2  1  0
  1 19  1  0
  2  4  1  0
  2 17  1  1
  2 18  1  0
  3  7  1  1
  3  5  1  0
  3  4  1  0
  4  8  1  6
  5  9  1  0
  5 12  1  1
  5 13  1  0
  6  7  1  0
  7 27  1  6
  8 10  1  0
  9 14  1  0
  9 10  1  0
  9 41  1  1
 12 28  1  0
 13 15  1  0
 13 29  1  1
 14 16  1  0
 15 16  1  0
 16 30  1  1
 18 20  1  0
 19 20  1  1
 19 21  1  0
 21 22  2  0
 21 23  1  0
 22 24  1  0
 23 25  1  0
 24 25  1  0
 24 26  2  0
 31 30  1  1
 31 32  1  0
 31 33  1  0
 32 34  1  0
 32 40  1  6
 33 35  1  0
 34 36  1  0
 34 39  1  6
 35 36  1  0
 35 37  1  6
 36 38  1  1
M  END
>  <Formula>  (761) 
C29H44O12

>  <FW>  (761) 
584.6525

>  <DSSTox_CID>  (761) 
23765

>  <NR-Aromatase>  (761) 
1

>  <NR-AhR>  (761) 
0

>  <SR-MMP>  (761) 
1

>  <SR-p53>  (761) 
0

$$$$
NCGC00090797-03
     RDKit          2D

 55 62  0  0  1  0  0  0  0  0999 V2000
    8.6371   -5.6717    0.0000 O   0  0  0  0  0  0  0  0  0  0  0  0
    7.9174   -5.2687    0.0000 C   0  0  0  0  0  0  0  0  0  0  0  0
    7.1976   -5.6717    0.0000 C   0  0  0  0  0  0  0  0  0  0  0  0
    7.9174   -4.4194    0.0000 O   0  0  0  0  0  0  0  0  0  0  0  0
    6.4778   -5.2687    0.0000 C   0  0  0  0  0  0  0  0  0  0  0  0
    7.1976   -4.0162    0.0000 C   0  0  0  0  0  0  0  0  0  0  0  0
    6.4778   -4.4194    0.0000 C   0  0  0  0  0  0  0  0  0  0  0  0
    5.7581   -4.0162    0.0000 O   0  0  0  0  0  0  0  0  0  0  0  0
    5.0383   -4.4194    0.0000 C   0  0  0  0  0  0  0  0  0  0  0  0
    5.0383   -5.2687    0.0000 O   0  0  0  0  0  0  0  0  0  0  0  0
    4.3186   -4.0162    0.0000 C   0  0  0  0  0  0  0  0  0  0  0  0
    4.3186   -5.6717    0.0000 C   0  0  0  0  0  0  0  0  0  0  0  0
    3.5988   -4.4194    0.0000 C   0  0  0  0  0  0  0  0  0  0  0  0
    3.5988   -5.2687    0.0000 C   0  0  0  0  0  0  0  0  0  0  0  0
    2.8790   -5.6717    0.0000 O   0  0  0  0  0  0  0  0  0  0  0  0
    2.1593   -5.2687    0.0000 C   0  0  0  0  0  0  0  0  0  0  0  0
    1.4396   -5.6717    0.0000 C   0  0  0  0  0  0  0  0  0  0  0  0
    2.1593   -4.4194    0.0000 O   0  0  0  0  0  0  0  0  0  0  0  0
    0.7197   -5.2687    0.0000 C   0  0  0  0  0  0  0  0  0  0  0  0
    1.4396   -4.0162    0.0000 C   0  0  0  0  0  0  0  0  0  0  0  0
    0.7197   -4.4194    0.0000 C   0  0  0  0  0  0  0  0  0  0  0  0
    5.7581   -5.6717    0.0000 O   0  0  0  0  0  0  0  0  0  0  0  0
    2.8790   -4.0162    0.0000 O   0  0  0  0  0  0  0  0  0  0  0  0
    0.0000   -4.0162    0.0000 O   0  0  0  0  0  0  0  0  0  0  0  0
    0.0000   -5.6717    0.0000 O   0  0  0  0  0  0  0  0  0  0  0  0
    1.4396   -3.1957    0.0000 C   0  0  0  0  0  0  0  0  0  0  0  0
    4.3186   -6.5066    0.0000 C   0  0  0  0  0  0  0  0  0  0  0  0
    7.1976   -3.1957    0.0000 C   0  0  0  0  0  0  0  0  0  0  0  0
    9.3569   -5.2687    0.0000 C   0  0  0  0  0  0  0  0  0  0  0  0
    9.3569   -4.4194    0.0000 C   0  0  0  0  0  0  0  0  0  0  0  0
   10.0767   -5.6717    0.0000 C   0  0  0  0  0  0  0  0  0  0  0  0
   10.0767   -4.0162    0.0000 C   0  0  0  0  0  0  0  0  0  0  0  0
   10.7964   -5.2687    0.0000 C   0  0  0  0  0  0  0  0  0  0  0  0
   10.7964   -4.4338    0.0000 C   0  0  0  0  0  0  0  0  0  0  0  0
   11.5162   -5.6717    0.0000 C   0  0  0  0  0  0  0  0  0  0  0  0
   12.2360   -5.2687    0.0000 C   0  0  0  0  0  0  0  0  0  0  0  0
   11.5162   -4.0162    0.0000 C   0  0  0  0  0  0  0  0  0  0  0  0
   12.2360   -4.4194    0.0000 C   0  0  0  0  0  0  0  0  0  0  0  0
   11.5162   -3.1957    0.0000 C   0  0  0  0  0  0  0  0  0  0  0  0
   12.2360   -2.7639    0.0000 C   0  0  0  0  0  0  0  0  0  0  0  0
   12.9557   -4.0162    0.0000 C   0  0  0  0  0  0  0  0  0  0  0  0
   12.9557   -3.1957    0.0000 C   0  0  0  0  0  0  0  0  0  0  0  0
   14.3952   -4.0162    0.0000 C   0  0  0  0  0  0  0  0  0  0  0  0
   13.6755   -2.7639    0.0000 C   0  0  0  0  0  0  0  0  0  0  0  0
   14.3952   -3.1957    0.0000 C   0  0  0  0  0  0  0  0  0  0  0  0
   13.6755   -1.9434    0.0000 C   0  0  0  0  0  0  0  0  0  0  0  0
   12.9989   -1.4683    0.0000 C   0  0  0  0  0  0  0  0  0  0  0  0
   14.3377   -1.4683    0.0000 C   0  0  0  0  0  0  0  0  0  0  0  0
   13.2580   -0.6622    0.0000 C   0  0  0  0  0  0  0  0  0  0  0  0
   14.0929   -0.6622    0.0000 O   0  0  0  0  0  0  0  0  0  0  0  0
   10.7964   -3.5988    0.0000 C   0  0  0  0  0  0  0  0  0  0  0  0
   12.9557   -4.8656    0.0000 O   0  0  0  0  0  0  0  0  0  0  0  0
   12.9557   -2.3608    0.0000 C   0  0  0  0  0  0  0  0  0  0  0  0
   12.7542    0.0000    0.0000 O   0  0  0  0  0  0  0  0  0  0  0  0
   12.2360   -1.9434    0.0000 O   0  0  0  0  0  0  0  0  0  0  0  0
  2  1  1  1
 29  1  1  1
  2  3  1  0
  2  4  1  0
  3  5  1  0
  4  6  1  0
  5  7  1  0
  5 22  1  6
  6  7  1  0
  6 28  1  1
  7  8  1  6
  9  8  1  6
  9 10  1  0
  9 11  1  0
 10 12  1  0
 11 13  1  0
 12 14  1  0
 12 27  1  6
 13 14  1  0
 13 23  1  1
 14 15  1  1
 16 15  1  1
 16 17  1  0
 16 18  1  0
 17 19  1  0
 18 20  1  0
 19 21  1  0
 19 25  1  6
 20 21  1  0
 20 26  1  1
 21 24  1  6
 29 30  1  0
 29 31  1  0
 30 32  1  0
 33 31  1  6
 32 34  1  0
 33 35  1  0
 33 34  1  0
 34 37  1  0
 34 51  1  1
 35 36  1  0
 38 36  1  6
 37 39  1  1
 37 38  1  0
 38 41  1  0
 39 40  1  0
 40 42  1  0
 40 55  1  1
 41 43  1  0
 41 42  1  0
 41 52  1  1
 42 44  1  0
 42 53  1  1
 43 45  1  0
 44 45  1  1
 44 46  1  0
 46 47  2  0
 46 48  1  0
 47 49  1  0
 48 50  1  0
 49 50  1  0
 49 54  2  0
M  END
>  <Formula>  (762) 
C41H64O14

>  <FW>  (762) 
780.9385

>  <DSSTox_CID>  (762) 
2934

>  <NR-AR-LBD>  (762) 
1

>  <NR-ER>  (762) 
1

>  <NR-ER-LBD>  (762) 
1

>  <NR-AhR>  (762) 
0

>  <SR-MMP>  (762) 
1

$$$$
NCGC00259227-01
     RDKit          2D

 55 62  0  0  1  0  0  0  0  0999 V2000
    8.6371   -5.6717    0.0000 O   0  0  0  0  0  0  0  0  0  0  0  0
    7.9174   -5.2687    0.0000 C   0  0  0  0  0  0  0  0  0  0  0  0
    7.1976   -5.6717    0.0000 C   0  0  0  0  0  0  0  0  0  0  0  0
    7.9174   -4.4194    0.0000 O   0  0  0  0  0  0  0  0  0  0  0  0
    6.4778   -5.2687    0.0000 C   0  0  0  0  0  0  0  0  0  0  0  0
    7.1976   -4.0162    0.0000 C   0  0  0  0  0  0  0  0  0  0  0  0
    6.4778   -4.4194    0.0000 C   0  0  0  0  0  0  0  0  0  0  0  0
    5.7581   -4.0162    0.0000 O   0  0  0  0  0  0  0  0  0  0  0  0
    5.0383   -4.4194    0.0000 C   0  0  0  0  0  0  0  0  0  0  0  0
    5.0383   -5.2687    0.0000 O   0  0  0  0  0  0  0  0  0  0  0  0
    4.3186   -4.0162    0.0000 C   0  0  0  0  0  0  0  0  0  0  0  0
    4.3186   -5.6717    0.0000 C   0  0  0  0  0  0  0  0  0  0  0  0
    3.5988   -4.4194    0.0000 C   0  0  0  0  0  0  0  0  0  0  0  0
    3.5988   -5.2687    0.0000 C   0  0  0  0  0  0  0  0  0  0  0  0
    2.8790   -5.6717    0.0000 O   0  0  0  0  0  0  0  0  0  0  0  0
    2.1593   -5.2687    0.0000 C   0  0  0  0  0  0  0  0  0  0  0  0
    1.4396   -5.6717    0.0000 C   0  0  0  0  0  0  0  0  0  0  0  0
    2.1593   -4.4194    0.0000 O   0  0  0  0  0  0  0  0  0  0  0  0
    0.7197   -5.2687    0.0000 C   0  0  0  0  0  0  0  0  0  0  0  0
    1.4396   -4.0162    0.0000 C   0  0  0  0  0  0  0  0  0  0  0  0
    0.7197   -4.4194    0.0000 C   0  0  0  0  0  0  0  0  0  0  0  0
    5.7581   -5.6717    0.0000 O   0  0  0  0  0  0  0  0  0  0  0  0
    2.8790   -4.0162    0.0000 O   0  0  0  0  0  0  0  0  0  0  0  0
    0.0000   -4.0162    0.0000 O   0  0  0  0  0  0  0  0  0  0  0  0
    0.0000   -5.6717    0.0000 O   0  0  0  0  0  0  0  0  0  0  0  0
    1.4396   -3.1957    0.0000 C   0  0  0  0  0  0  0  0  0  0  0  0
    4.3186   -6.5066    0.0000 C   0  0  0  0  0  0  0  0  0  0  0  0
    7.1976   -3.1957    0.0000 C   0  0  0  0  0  0  0  0  0  0  0  0
    9.3569   -5.2687    0.0000 C   0  0  0  0  0  0  0  0  0  0  0  0
    9.3569   -4.4194    0.0000 C   0  0  0  0  0  0  0  0  0  0  0  0
   10.0767   -5.6717    0.0000 C   0  0  0  0  0  0  0  0  0  0  0  0
   10.0767   -4.0162    0.0000 C   0  0  0  0  0  0  0  0  0  0  0  0
   10.7964   -5.2687    0.0000 C   0  0  0  0  0  0  0  0  0  0  0  0
   10.7964   -4.4338    0.0000 C   0  0  0  0  0  0  0  0  0  0  0  0
   11.5162   -5.6717    0.0000 C   0  0  0  0  0  0  0  0  0  0  0  0
   12.2360   -5.2687    0.0000 C   0  0  0  0  0  0  0  0  0  0  0  0
   11.5162   -4.0162    0.0000 C   0  0  0  0  0  0  0  0  0  0  0  0
   12.2360   -4.4194    0.0000 C   0  0  0  0  0  0  0  0  0  0  0  0
   11.5162   -3.1957    0.0000 C   0  0  0  0  0  0  0  0  0  0  0  0
   12.2360   -2.7639    0.0000 C   0  0  0  0  0  0  0  0  0  0  0  0
   12.9557   -4.0162    0.0000 C   0  0  0  0  0  0  0  0  0  0  0  0
   12.9557   -3.1957    0.0000 C   0  0  0  0  0  0  0  0  0  0  0  0
   14.3952   -4.0162    0.0000 C   0  0  0  0  0  0  0  0  0  0  0  0
   13.6755   -2.7639    0.0000 C   0  0  0  0  0  0  0  0  0  0  0  0
   14.3952   -3.1957    0.0000 C   0  0  0  0  0  0  0  0  0  0  0  0
   13.6755   -1.9434    0.0000 C   0  0  0  0  0  0  0  0  0  0  0  0
   12.9989   -1.4683    0.0000 C   0  0  0  0  0  0  0  0  0  0  0  0
   14.3377   -1.4683    0.0000 C   0  0  0  0  0  0  0  0  0  0  0  0
   13.2580   -0.6622    0.0000 C   0  0  0  0  0  0  0  0  0  0  0  0
   14.0929   -0.6622    0.0000 O   0  0  0  0  0  0  0  0  0  0  0  0
   10.7964   -3.5988    0.0000 C   0  0  0  0  0  0  0  0  0  0  0  0
   12.9557   -4.8656    0.0000 O   0  0  0  0  0  0  0  0  0  0  0  0
   12.9557   -2.3608    0.0000 C   0  0  0  0  0  0  0  0  0  0  0  0
   12.7542    0.0000    0.0000 O   0  0  0  0  0  0  0  0  0  0  0  0
   12.2360   -1.9434    0.0000 O   0  0  0  0  0  0  0  0  0  0  0  0
  2  1  1  1
 29  1  1  1
  2  3  1  0
  2  4  1  0
  3  5  1  0
  4  6  1  0
  5  7  1  0
  5 22  1  6
  6  7  1  0
  6 28  1  1
  7  8  1  6
  9  8  1  6
  9 10  1  0
  9 11  1  0
 10 12  1  0
 11 13  1  0
 12 14  1  0
 12 27  1  6
 13 14  1  0
 13 23  1  1
 14 15  1  1
 16 15  1  1
 16 17  1  0
 16 18  1  0
 17 19  1  0
 18 20  1  0
 19 21  1  0
 19 25  1  6
 20 21  1  0
 20 26  1  1
 21 24  1  6
 29 30  1  0
 29 31  1  0
 30 32  1  0
 33 31  1  6
 32 34  1  0
 33 35  1  0
 33 34  1  0
 34 37  1  0
 34 51  1  1
 35 36  1  0
 38 36  1  6
 37 39  1  1
 37 38  1  0
 38 41  1  0
 39 40  1  0
 40 42  1  0
 40 55  1  1
 41 43  1  0
 41 42  1  0
 41 52  1  1
 42 44  1  0
 42 53  1  1
 43 45  1  0
 44 45  1  1
 44 46  1  0
 46 47  2  0
 46 48  1  0
 47 49  1  0
 48 50  1  0
 49 50  1  0
 49 54  2  0
M  END
>  <Formula>  (763) 
C41H64O14

>  <FW>  (763) 
780.9385

>  <DSSTox_CID>  (763) 
2934

>  <NR-Aromatase>  (763) 
1

>  <NR-ER-LBD>  (763) 
0

>  <NR-AhR>  (763) 
0

>  <SR-HSE>  (763) 
0

>  <SR-MMP>  (763) 
1

>  <SR-p53>  (763) 
0

$$$$
NCGC00255265-01
     RDKit          2D

 54 61  0  0  1  0  0  0  0  0999 V2000
    8.6378   -5.6722    0.0000 O   0  0  0  0  0  0  0  0  0  0  0  0
    7.9180   -5.2691    0.0000 C   0  0  0  0  0  0  0  0  0  0  0  0
    7.1982   -5.6722    0.0000 C   0  0  0  0  0  0  0  0  0  0  0  0
    7.9180   -4.4197    0.0000 O   0  0  0  0  0  0  0  0  0  0  0  0
    6.4784   -5.2691    0.0000 C   0  0  0  0  0  0  0  0  0  0  0  0
    7.1982   -4.0166    0.0000 C   0  0  0  0  0  0  0  0  0  0  0  0
    6.4784   -4.4197    0.0000 C   0  0  0  0  0  0  0  0  0  0  0  0
    5.7586   -4.0166    0.0000 O   0  0  0  0  0  0  0  0  0  0  0  0
    5.0388   -4.4197    0.0000 C   0  0  0  0  0  0  0  0  0  0  0  0
    5.0388   -5.2691    0.0000 O   0  0  0  0  0  0  0  0  0  0  0  0
    4.3189   -4.0166    0.0000 C   0  0  0  0  0  0  0  0  0  0  0  0
    4.3189   -5.6722    0.0000 C   0  0  0  0  0  0  0  0  0  0  0  0
    3.5991   -4.4197    0.0000 C   0  0  0  0  0  0  0  0  0  0  0  0
    3.5991   -5.2691    0.0000 C   0  0  0  0  0  0  0  0  0  0  0  0
    2.8793   -5.6722    0.0000 O   0  0  0  0  0  0  0  0  0  0  0  0
    2.1594   -5.2691    0.0000 C   0  0  0  0  0  0  0  0  0  0  0  0
    1.4396   -5.6722    0.0000 C   0  0  0  0  0  0  0  0  0  0  0  0
    2.1594   -4.4197    0.0000 O   0  0  0  0  0  0  0  0  0  0  0  0
    0.7198   -5.2691    0.0000 C   0  0  0  0  0  0  0  0  0  0  0  0
    1.4396   -4.0166    0.0000 C   0  0  0  0  0  0  0  0  0  0  0  0
    0.7198   -4.4197    0.0000 C   0  0  0  0  0  0  0  0  0  0  0  0
    5.7586   -5.6722    0.0000 O   0  0  0  0  0  0  0  0  0  0  0  0
    2.8793   -4.0166    0.0000 O   0  0  0  0  0  0  0  0  0  0  0  0
    0.0000   -4.0166    0.0000 O   0  0  0  0  0  0  0  0  0  0  0  0
    0.0000   -5.6722    0.0000 O   0  0  0  0  0  0  0  0  0  0  0  0
    1.4396   -3.1960    0.0000 C   0  0  0  0  0  0  0  0  0  0  0  0
    4.3189   -6.5071    0.0000 C   0  0  0  0  0  0  0  0  0  0  0  0
    7.1982   -3.1960    0.0000 C   0  0  0  0  0  0  0  0  0  0  0  0
    9.3576   -5.2691    0.0000 C   0  0  0  0  0  0  0  0  0  0  0  0
    9.3576   -4.4197    0.0000 C   0  0  0  0  0  0  0  0  0  0  0  0
   10.0774   -5.6722    0.0000 C   0  0  0  0  0  0  0  0  0  0  0  0
   10.0774   -4.0166    0.0000 C   0  0  0  0  0  0  0  0  0  0  0  0
   10.7973   -5.2691    0.0000 C   0  0  0  0  0  0  0  0  0  0  0  0
   10.7973   -4.4341    0.0000 C   0  0  0  0  0  0  0  0  0  0  0  0
   11.5171   -5.6722    0.0000 C   0  0  0  0  0  0  0  0  0  0  0  0
   12.2369   -5.2691    0.0000 C   0  0  0  0  0  0  0  0  0  0  0  0
   11.5171   -4.0166    0.0000 C   0  0  0  0  0  0  0  0  0  0  0  0
   12.2369   -4.4197    0.0000 C   0  0  0  0  0  0  0  0  0  0  0  0
   11.5171   -3.1960    0.0000 C   0  0  0  0  0  0  0  0  0  0  0  0
   12.2369   -2.7641    0.0000 C   0  0  0  0  0  0  0  0  0  0  0  0
   12.9568   -4.0166    0.0000 C   0  0  0  0  0  0  0  0  0  0  0  0
   12.9568   -3.1960    0.0000 C   0  0  0  0  0  0  0  0  0  0  0  0
   14.3964   -4.0166    0.0000 C   0  0  0  0  0  0  0  0  0  0  0  0
   13.6766   -2.7641    0.0000 C   0  0  0  0  0  0  0  0  0  0  0  0
   14.3964   -3.1960    0.0000 C   0  0  0  0  0  0  0  0  0  0  0  0
   13.6766   -1.9435    0.0000 C   0  0  0  0  0  0  0  0  0  0  0  0
   12.9999   -1.4684    0.0000 C   0  0  0  0  0  0  0  0  0  0  0  0
   14.3388   -1.4684    0.0000 C   0  0  0  0  0  0  0  0  0  0  0  0
   13.2591   -0.6622    0.0000 C   0  0  0  0  0  0  0  0  0  0  0  0
   14.0941   -0.6622    0.0000 O   0  0  0  0  0  0  0  0  0  0  0  0
   10.7973   -3.5991    0.0000 C   0  0  0  0  0  0  0  0  0  0  0  0
   12.9568   -4.8660    0.0000 O   0  0  0  0  0  0  0  0  0  0  0  0
   12.9568   -2.3610    0.0000 C   0  0  0  0  0  0  0  0  0  0  0  0
   12.7552    0.0000    0.0000 O   0  0  0  0  0  0  0  0  0  0  0  0
  2  1  1  1
 29  1  1  1
  2  3  1  0
  2  4  1  0
  3  5  1  0
  4  6  1  0
  5  7  1  0
  5 22  1  6
  6  7  1  0
  6 28  1  1
  7  8  1  6
  9  8  1  6
  9 10  1  0
  9 11  1  0
 10 12  1  0
 11 13  1  0
 12 14  1  0
 12 27  1  6
 13 14  1  0
 13 23  1  1
 14 15  1  1
 16 15  1  1
 16 17  1  0
 16 18  1  0
 17 19  1  0
 18 20  1  0
 19 21  1  0
 19 25  1  6
 20 21  1  0
 20 26  1  1
 21 24  1  6
 29 30  1  0
 29 31  1  0
 30 32  1  0
 33 31  1  6
 32 34  1  0
 33 35  1  0
 33 34  1  0
 34 37  1  0
 34 51  1  1
 35 36  1  0
 38 36  1  6
 37 39  1  1
 37 38  1  0
 38 41  1  0
 39 40  1  0
 40 42  1  0
 41 43  1  0
 41 42  1  0
 41 52  1  1
 42 44  1  0
 42 53  1  1
 43 45  1  0
 44 45  1  1
 44 46  1  0
 46 47  2  0
 46 48  1  0
 47 49  1  0
 48 50  1  0
 49 50  1  0
 49 54  2  0
M  END
>  <Formula>  (764) 
C41H64O13

>  <FW>  (764) 
764.9391

>  <DSSTox_CID>  (764) 
2933

>  <NR-AR-LBD>  (764) 
1

>  <NR-ER-LBD>  (764) 
0

>  <NR-AhR>  (764) 
0

>  <SR-HSE>  (764) 
0

>  <SR-MMP>  (764) 
1

>  <SR-p53>  (764) 
1

$$$$
NCGC00094596-03
     RDKit          2D

 36 39  0  0  1  0  0  0  0  0999 V2000
    4.3093   -3.5531    0.0000 C   0  0  0  0  0  0  0  0  0  0  0  0
    2.8778   -4.3901    0.0000 C   0  0  0  0  0  0  0  0  0  0  0  0
    2.1583   -4.7938    0.0000 C   0  0  0  0  0  0  0  0  0  0  0  0
    4.3093   -4.3901    0.0000 C   0  0  0  0  0  0  0  0  0  0  0  0
    3.5825   -4.7938    0.0000 C   0  0  0  0  0  0  0  0  0  0  0  0
    5.0948   -3.3036    0.0000 C   0  0  0  0  0  0  0  0  0  0  0  0
    2.1583   -5.6234    0.0000 C   0  0  0  0  0  0  0  0  0  0  0  0
    2.8778   -3.5531    0.0000 C   0  0  0  0  0  0  0  0  0  0  0  0
    3.5825   -3.1568    0.0000 C   0  0  0  0  0  0  0  0  0  0  0  0
    5.5720   -3.9716    0.0000 C   0  0  0  0  0  0  0  0  0  0  0  0
    1.4536   -4.3901    0.0000 C   0  0  0  0  0  0  0  0  0  0  0  0
    5.0948   -4.6397    0.0000 C   0  0  0  0  0  0  0  0  0  0  0  0
    1.4536   -6.0492    0.0000 C   0  0  0  0  0  0  0  0  0  0  0  0
    5.0948   -2.4813    0.0000 C   0  0  0  0  0  0  0  0  0  0  0  0
    3.5825   -5.6234    0.0000 C   0  0  0  0  0  0  0  0  0  0  0  0
    0.7341   -4.7938    0.0000 C   0  0  0  0  0  0  0  0  0  0  0  0
    0.7341   -5.6234    0.0000 C   0  0  0  0  0  0  0  0  0  0  0  0
    2.8778   -6.0492    0.0000 C   0  0  0  0  0  0  0  0  0  0  0  0
    2.8631   -5.0728    0.0000 Cl  0  0  0  0  0  0  0  0  0  0  0  0
    4.3680   -2.0629    0.0000 O   0  0  0  0  0  0  0  0  0  0  0  0
    0.0000   -6.0492    0.0000 O   0  0  0  0  0  0  0  0  0  0  0  0
    5.9097   -3.3036    0.0000 O   0  0  0  0  0  0  0  0  0  0  0  0
    4.3093   -2.7236    0.0000 C   0  0  0  0  0  0  0  0  0  0  0  0
    2.1510   -3.1274    0.0000 O   0  0  0  0  0  0  0  0  0  0  0  0
    2.1583   -3.9716    0.0000 C   0  0  0  0  0  0  0  0  0  0  0  0
    6.4750   -3.9716    0.0000 C   0  0  0  0  0  0  0  0  0  0  0  0
    5.8069   -2.0629    0.0000 C   0  0  0  0  0  0  0  0  0  0  0  0
    5.8069   -1.2480    0.0000 O   0  0  0  0  0  0  0  0  0  0  0  0
    5.0948   -0.8295    0.0000 C   0  0  0  0  0  0  0  0  0  0  0  0
    5.0948    0.0000    0.0000 O   0  0  0  0  0  0  0  0  0  0  0  0
    4.3901   -1.2480    0.0000 C   0  0  0  0  0  0  0  0  0  0  0  0
    3.6633   -0.8295    0.0000 C   0  0  0  0  0  0  0  0  0  0  0  0
    6.6218   -2.8924    0.0000 C   0  0  0  0  0  0  0  0  0  0  0  0
    7.3339   -3.3109    0.0000 O   0  0  0  0  0  0  0  0  0  0  0  0
    6.6218   -2.0629    0.0000 C   0  0  0  0  0  0  0  0  0  0  0  0
    7.3413   -1.6591    0.0000 C   0  0  0  0  0  0  0  0  0  0  0  0
  1  4  1  0
  1  6  1  0
  1  9  1  0
  1 23  1  1
  2  8  1  0
  2  3  1  0
  2 19  1  6
  2  5  1  0
  3  7  1  0
  3 11  1  0
  3 25  1  1
  4  5  1  0
  4 12  1  1
  5 15  1  6
  6 10  1  0
  6 14  1  0
  6 22  1  6
  7 13  2  0
  7 18  1  0
  8  9  1  0
  8 24  1  1
 10 26  1  1
 10 12  1  0
 11 16  2  0
 13 17  1  0
 14 20  2  0
 14 27  1  0
 15 18  1  0
 16 17  1  0
 17 21  2  0
 22 33  1  0
 27 28  1  0
 28 29  1  0
 29 30  2  0
 29 31  1  0
 31 32  1  0
 33 34  2  0
 33 35  1  0
 35 36  1  0
M  END
>  <Formula>  (765) 
C28H37ClO7

>  <FW>  (765) 
521.0422

>  <DSSTox_CID>  (765) 
28656

>  <NR-AR>  (765) 
1

>  <NR-AR-LBD>  (765) 
1

>  <NR-ER>  (765) 
0

>  <SR-ATAD5>  (765) 
0

>  <SR-MMP>  (765) 
1

>  <SR-p53>  (765) 
0

$$$$
NCGC00167451-01
     RDKit          2D

 33 36  0  0  1  0  0  0  0  0999 V2000
    4.2813   -1.5845    0.0000 C   0  0  0  0  0  0  0  0  0  0  0  0
    2.8649   -2.3927    0.0000 C   0  0  0  0  0  0  0  0  0  0  0  0
    2.1446   -2.8088    0.0000 C   0  0  0  0  0  0  0  0  0  0  0  0
    4.2813   -2.3927    0.0000 C   0  0  0  0  0  0  0  0  0  0  0  0
    3.5691   -2.8088    0.0000 C   0  0  0  0  0  0  0  0  0  0  0  0
    5.0655   -1.3204    0.0000 C   0  0  0  0  0  0  0  0  0  0  0  0
    2.1446   -3.6411    0.0000 C   0  0  0  0  0  0  0  0  0  0  0  0
    2.8649   -1.5845    0.0000 C   0  0  0  0  0  0  0  0  0  0  0  0
    3.5691   -1.1603    0.0000 C   0  0  0  0  0  0  0  0  0  0  0  0
    5.5537   -1.9926    0.0000 C   0  0  0  0  0  0  0  0  0  0  0  0
    1.4564   -2.3927    0.0000 C   0  0  0  0  0  0  0  0  0  0  0  0
    5.0655   -2.6488    0.0000 C   0  0  0  0  0  0  0  0  0  0  0  0
    1.4564   -4.0572    0.0000 C   0  0  0  0  0  0  0  0  0  0  0  0
    5.0655   -0.4882    0.0000 C   0  0  0  0  0  0  0  0  0  0  0  0
    3.5691   -3.6411    0.0000 C   0  0  0  0  0  0  0  0  0  0  0  0
    0.7282   -2.8088    0.0000 C   0  0  0  0  0  0  0  0  0  0  0  0
    0.7282   -3.6411    0.0000 C   0  0  0  0  0  0  0  0  0  0  0  0
    2.8649   -4.0572    0.0000 C   0  0  0  0  0  0  0  0  0  0  0  0
    2.8489   -3.1049    0.0000 F   0  0  0  0  0  0  0  0  0  0  0  0
    0.0000   -4.0572    0.0000 O   0  0  0  0  0  0  0  0  0  0  0  0
    5.8658   -1.3044    0.0000 O   0  0  0  0  0  0  0  0  0  0  0  0
    4.2813   -0.7522    0.0000 C   0  0  0  0  0  0  0  0  0  0  0  0
    2.1367   -1.1603    0.0000 O   0  0  0  0  0  0  0  0  0  0  0  0
    2.1446   -1.9926    0.0000 C   0  0  0  0  0  0  0  0  0  0  0  0
    6.3779   -1.9766    0.0000 C   0  0  0  0  0  0  0  0  0  0  0  0
    4.3293   -0.1521    0.0000 C   0  0  0  0  0  0  0  0  0  0  0  0
    3.6571   -0.6482    0.0000 Cl  0  0  0  0  0  0  0  0  0  0  0  0
    2.8649   -4.8735    0.0000 F   0  0  0  0  0  0  0  0  0  0  0  0
    6.5860   -0.8803    0.0000 C   0  0  0  0  0  0  0  0  0  0  0  0
    5.7377    0.0000    0.0000 O   0  0  0  0  0  0  0  0  0  0  0  0
    7.2902   -1.3044    0.0000 C   0  0  0  0  0  0  0  0  0  0  0  0
    8.0024   -0.8803    0.0000 C   0  0  0  0  0  0  0  0  0  0  0  0
    6.5860   -0.0720    0.0000 O   0  0  0  0  0  0  0  0  0  0  0  0
  1  4  1  0
  1  6  1  0
  1  9  1  0
  1 22  1  1
  2  8  1  0
  2  3  1  0
  2 19  1  6
  2  5  1  0
  3  7  1  0
  3 11  1  0
  3 24  1  1
  4  5  1  0
  4 12  1  1
  5 15  1  6
  6 10  1  0
  6 14  1  0
  6 21  1  6
  7 13  2  0
  7 18  1  0
  8  9  1  0
  8 23  1  1
 10 25  1  1
 10 12  1  0
 11 16  2  0
 13 17  1  0
 14 30  2  0
 14 26  1  0
 15 18  1  0
 16 17  1  0
 17 20  2  0
 18 28  1  6
 21 29  1  0
 26 27  1  0
 29 31  1  0
 29 33  2  0
 31 32  1  0
M  END
>  <Formula>  (766) 
C25H31ClF2O5

>  <FW>  (766) 
484.9604

>  <DSSTox_CID>  (766) 
26636

>  <NR-AR>  (766) 
1

>  <NR-AR-LBD>  (766) 
1

>  <NR-ER>  (766) 
0

>  <SR-ATAD5>  (766) 
0

>  <SR-MMP>  (766) 
1

>  <SR-p53>  (766) 
0

$$$$
NCGC00255970-01
     RDKit          2D

 41 46  0  0  1  0  0  0  0  0999 V2000
    7.1998   -3.1445    0.0000 C   0  0  0  0  0  0  0  0  0  0  0  0
    7.1998   -3.9607    0.0000 C   0  0  0  0  0  0  0  0  0  0  0  0
    5.7564   -3.9607    0.0000 C   0  0  0  0  0  0  0  0  0  0  0  0
    6.4867   -4.3645    0.0000 C   0  0  0  0  0  0  0  0  0  0  0  0
    5.0433   -4.3645    0.0000 C   0  0  0  0  0  0  0  0  0  0  0  0
    6.4867   -2.7321    0.0000 C   0  0  0  0  0  0  0  0  0  0  0  0
    5.7564   -3.1445    0.0000 C   0  0  0  0  0  0  0  0  0  0  0  0
    6.4867   -5.1893    0.0000 C   0  0  0  0  0  0  0  0  0  0  0  0
    5.0433   -5.1893    0.0000 C   0  0  0  0  0  0  0  0  0  0  0  0
    5.7564   -5.6275    0.0000 C   0  0  0  0  0  0  0  0  0  0  0  0
    7.1998   -2.2940    0.0000 C   0  0  0  0  0  0  0  0  0  0  0  0
    5.0433   -3.5483    0.0000 C   0  0  0  0  0  0  0  0  0  0  0  0
    4.3387   -3.9607    0.0000 C   0  0  0  0  0  0  0  0  0  0  0  0
    4.3387   -5.6275    0.0000 C   0  0  0  0  0  0  0  0  0  0  0  0
    3.6170   -4.3645    0.0000 C   0  0  0  0  0  0  0  0  0  0  0  0
    3.6170   -5.1893    0.0000 C   0  0  0  0  0  0  0  0  0  0  0  0
    7.1998   -4.8027    0.0000 O   0  0  0  0  0  0  0  0  0  0  0  0
    8.5915   -3.9607    0.0000 C   0  0  0  0  0  0  0  0  0  0  0  0
    7.8956   -2.7321    0.0000 C   0  0  0  0  0  0  0  0  0  0  0  0
    8.5915   -3.1445    0.0000 C   0  0  0  0  0  0  0  0  0  0  0  0
    7.8956   -1.9159    0.0000 C   0  0  0  0  0  0  0  0  0  0  0  0
    7.2255   -1.4348    0.0000 C   0  0  0  0  0  0  0  0  0  0  0  0
    8.5658   -1.4348    0.0000 C   0  0  0  0  0  0  0  0  0  0  0  0
    7.4919   -0.6530    0.0000 C   0  0  0  0  0  0  0  0  0  0  0  0
    8.2995   -0.6530    0.0000 O   0  0  0  0  0  0  0  0  0  0  0  0
    6.9935    0.0000    0.0000 O   0  0  0  0  0  0  0  0  0  0  0  0
    5.0347   -2.7321    0.0000 O   0  0  0  0  0  0  0  0  0  0  0  0
    4.3387   -3.1360    0.0000 O   0  0  0  0  0  0  0  0  0  0  0  0
    3.6256   -3.5483    0.0000 O   0  0  0  0  0  0  0  0  0  0  0  0
    2.8868   -5.6533    0.0000 O   0  0  0  0  0  0  0  0  0  0  0  0
    2.1651   -5.2322    0.0000 C   0  0  0  0  0  0  0  0  0  0  0  0
    1.4434   -5.6447    0.0000 C   0  0  0  0  0  0  0  0  0  0  0  0
    2.1651   -4.3903    0.0000 O   0  0  0  0  0  0  0  0  0  0  0  0
    0.7217   -5.2151    0.0000 C   0  0  0  0  0  0  0  0  0  0  0  0
    1.4520   -3.9607    0.0000 C   0  0  0  0  0  0  0  0  0  0  0  0
    0.7217   -4.3817    0.0000 C   0  0  0  0  0  0  0  0  0  0  0  0
    1.4520   -3.1360    0.0000 C   0  0  0  0  0  0  0  0  0  0  0  0
    0.0000   -3.9607    0.0000 O   0  0  0  0  0  0  0  0  0  0  0  0
    0.0000   -5.6361    0.0000 O   0  0  0  0  0  0  0  0  0  0  0  0
    1.4434   -6.4695    0.0000 O   0  0  0  0  0  0  0  0  0  0  0  0
    5.0433   -6.0227    0.0000 O   0  0  0  0  0  0  0  0  0  0  0  0
  1  6  1  0
  1 11  1  1
  1  2  1  0
  1 19  1  0
  2  4  1  0
  2 17  1  1
  2 18  1  0
  3  7  1  1
  3  5  1  0
  3  4  1  0
  4  8  1  6
  5  9  1  0
  5 12  1  1
  5 13  1  0
  6  7  1  0
  7 27  1  6
  8 10  1  0
  9 14  1  0
  9 10  1  0
  9 41  1  1
 12 28  1  0
 13 15  1  0
 13 29  1  1
 14 16  1  0
 15 16  1  0
 16 30  1  1
 18 20  1  0
 19 20  1  1
 19 21  1  0
 21 22  2  0
 21 23  1  0
 22 24  1  0
 23 25  1  0
 24 25  1  0
 24 26  2  0
 31 30  1  1
 31 32  1  0
 31 33  1  0
 32 34  1  0
 32 40  1  6
 33 35  1  0
 34 36  1  0
 34 39  1  6
 35 36  1  0
 35 37  1  6
 36 38  1  1
M  END
>  <Formula>  (767) 
C29H44O12

>  <FW>  (767) 
584.6525

>  <DSSTox_CID>  (767) 
23765

>  <NR-Aromatase>  (767) 
1

>  <NR-AR-LBD>  (767) 
1

>  <NR-ER-LBD>  (767) 
0

>  <NR-AhR>  (767) 
0

>  <SR-HSE>  (767) 
0

>  <SR-MMP>  (767) 
1

>  <SR-p53>  (767) 
0

$$$$
NCGC00021268-03
     RDKit          2D

 31 34  0  0  1  0  0  0  0  0999 V2000
    4.3181   -1.3620    0.0000 C   0  0  0  0  0  0  0  0  0  0  0  0
    5.1152   -1.0997    0.0000 C   0  0  0  0  0  0  0  0  0  0  0  0
    2.1792   -2.5929    0.0000 C   0  0  0  0  0  0  0  0  0  0  0  0
    4.3181   -2.1893    0.0000 C   0  0  0  0  0  0  0  0  0  0  0  0
    2.1792   -3.4303    0.0000 C   0  0  0  0  0  0  0  0  0  0  0  0
    2.8854   -2.1893    0.0000 C   0  0  0  0  0  0  0  0  0  0  0  0
    3.6119   -2.5929    0.0000 C   0  0  0  0  0  0  0  0  0  0  0  0
    1.4629   -3.8338    0.0000 C   0  0  0  0  0  0  0  0  0  0  0  0
    3.6119   -0.9383    0.0000 C   0  0  0  0  0  0  0  0  0  0  0  0
    5.5994   -1.7757    0.0000 C   0  0  0  0  0  0  0  0  0  0  0  0
    5.8617   -1.0997    0.0000 O   0  0  0  0  0  0  0  0  0  0  0  0
    5.1051   -2.4416    0.0000 C   0  0  0  0  0  0  0  0  0  0  0  0
    2.8854   -1.3620    0.0000 C   0  0  0  0  0  0  0  0  0  0  0  0
    1.4629   -2.1893    0.0000 C   0  0  0  0  0  0  0  0  0  0  0  0
    5.1152   -0.3632    0.0000 C   0  0  0  0  0  0  0  0  0  0  0  0
    3.6119   -3.4303    0.0000 C   0  0  0  0  0  0  0  0  0  0  0  0
    6.5882   -1.5133    0.0000 C   0  0  0  0  0  0  0  0  0  0  0  0
    2.8854   -3.8338    0.0000 C   0  0  0  0  0  0  0  0  0  0  0  0
    0.7365   -3.4303    0.0000 C   0  0  0  0  0  0  0  0  0  0  0  0
    6.5882   -2.3205    0.0000 O   0  0  0  0  0  0  0  0  0  0  0  0
    5.7508    0.0000    0.0000 O   0  0  0  0  0  0  0  0  0  0  0  0
    0.0000   -3.8338    0.0000 O   0  0  0  0  0  0  0  0  0  0  0  0
    0.7365   -2.5929    0.0000 C   0  0  0  0  0  0  0  0  0  0  0  0
    4.3181   -0.5246    0.0000 C   0  0  0  0  0  0  0  0  0  0  0  0
    2.1792   -1.7757    0.0000 C   0  0  0  0  0  0  0  0  0  0  0  0
    7.2944   -1.1098    0.0000 C   0  0  0  0  0  0  0  0  0  0  0  0
    4.4795    0.0000    0.0000 C   0  0  0  0  0  0  0  0  0  0  0  0
    7.9805   -1.5234    0.0000 C   0  0  0  0  0  0  0  0  0  0  0  0
    9.3929   -1.5335    0.0000 C   0  0  0  0  0  0  0  0  0  0  0  0
    8.6968   -1.1199    0.0000 C   0  0  0  0  0  0  0  0  0  0  0  0
   10.0891   -1.1300    0.0000 C   0  0  0  0  0  0  0  0  0  0  0  0
  1  2  1  0
  1  4  1  0
  1  9  1  0
  1 24  1  1
  2 10  1  0
  2 11  1  6
  2 15  1  0
  3  6  1  0
  3  5  1  0
  3 14  1  0
  3 25  1  1
  4  7  1  0
  4 12  1  1
  5  8  2  0
  5 18  1  0
  6 13  1  1
  6  7  1  0
  7 16  1  6
  8 19  1  0
  9 13  1  0
 10 12  1  0
 11 17  1  0
 14 23  1  0
 15 21  2  0
 15 27  1  0
 16 18  1  0
 17 20  2  0
 17 26  1  0
 19 23  1  0
 19 22  2  0
 26 28  1  0
 28 30  1  0
 29 30  1  0
 29 31  1  0
M  END
>  <Formula>  (768) 
C27H40O4

>  <FW>  (768) 
428.6041

>  <DSSTox_CID>  (768) 
23915

>  <NR-AR-LBD>  (768) 
0

>  <NR-ER-LBD>  (768) 
0

>  <NR-PPAR-gamma>  (768) 
0

>  <NR-AhR>  (768) 
0

>  <SR-ATAD5>  (768) 
0

>  <SR-MMP>  (768) 
1

>  <SR-p53>  (768) 
0

$$$$
NCGC00022003-03
     RDKit          2D

 35 38  0  0  1  0  0  0  0  0999 V2000
    2.1594   -3.5712    0.0000 C   0  0  0  0  0  0  0  0  0  0  0  0
    4.2910   -2.3324    0.0000 C   0  0  0  0  0  0  0  0  0  0  0  0
    2.8722   -3.1560    0.0000 C   0  0  0  0  0  0  0  0  0  0  0  0
    2.1594   -4.3949    0.0000 C   0  0  0  0  0  0  0  0  0  0  0  0
    4.2910   -3.1560    0.0000 C   0  0  0  0  0  0  0  0  0  0  0  0
    3.5920   -3.5712    0.0000 C   0  0  0  0  0  0  0  0  0  0  0  0
    5.0800   -2.0763    0.0000 C   0  0  0  0  0  0  0  0  0  0  0  0
    2.8722   -2.3324    0.0000 C   0  0  0  0  0  0  0  0  0  0  0  0
    1.4396   -3.1560    0.0000 C   0  0  0  0  0  0  0  0  0  0  0  0
    3.5920   -1.9241    0.0000 C   0  0  0  0  0  0  0  0  0  0  0  0
    5.5645   -2.7476    0.0000 C   0  0  0  0  0  0  0  0  0  0  0  0
    5.0800   -3.4259    0.0000 C   0  0  0  0  0  0  0  0  0  0  0  0
    3.5920   -4.3949    0.0000 C   0  0  0  0  0  0  0  0  0  0  0  0
    2.8722   -4.8101    0.0000 C   0  0  0  0  0  0  0  0  0  0  0  0
    1.4396   -4.8101    0.0000 C   0  0  0  0  0  0  0  0  0  0  0  0
    5.0800   -1.2527    0.0000 C   0  0  0  0  0  0  0  0  0  0  0  0
    0.7336   -3.5712    0.0000 C   0  0  0  0  0  0  0  0  0  0  0  0
    0.7336   -4.3810    0.0000 C   0  0  0  0  0  0  0  0  0  0  0  0
    2.8584   -3.9450    0.0000 F   0  0  0  0  0  0  0  0  0  0  0  0
    5.7998   -0.8652    0.0000 O   0  0  0  0  0  0  0  0  0  0  0  0
    0.0000   -4.7894    0.0000 O   0  0  0  0  0  0  0  0  0  0  0  0
    5.7098   -1.5849    0.0000 O   0  0  0  0  0  0  0  0  0  0  0  0
    2.1594   -2.7407    0.0000 C   0  0  0  0  0  0  0  0  0  0  0  0
    4.3118   -1.5503    0.0000 C   0  0  0  0  0  0  0  0  0  0  0  0
    2.1594   -1.9171    0.0000 O   0  0  0  0  0  0  0  0  0  0  0  0
    2.8722   -5.6337    0.0000 F   0  0  0  0  0  0  0  0  0  0  0  0
    6.3881   -2.9553    0.0000 C   0  0  0  0  0  0  0  0  0  0  0  0
    4.3810   -0.8444    0.0000 C   0  0  0  0  0  0  0  0  0  0  0  0
    3.6612   -1.2389    0.0000 O   0  0  0  0  0  0  0  0  0  0  0  0
    2.9553   -0.8236    0.0000 C   0  0  0  0  0  0  0  0  0  0  0  0
    2.9553    0.0000    0.0000 O   0  0  0  0  0  0  0  0  0  0  0  0
    2.2424   -1.2320    0.0000 C   0  0  0  0  0  0  0  0  0  0  0  0
    6.4642   -1.9033    0.0000 C   0  0  0  0  0  0  0  0  0  0  0  0
    6.9210   -1.2181    0.0000 O   0  0  0  0  0  0  0  0  0  0  0  0
    6.8310   -2.6508    0.0000 C   0  0  0  0  0  0  0  0  0  0  0  0
  1  3  1  0
  1  4  1  0
  1  9  1  0
  1 23  1  1
  2 10  1  0
  2  7  1  0
  2 24  1  1
  2  5  1  0
  3  6  1  0
  3  8  1  0
  3 19  1  6
  4 14  1  0
  4 15  2  0
  5  6  1  0
  5 12  1  1
  6 13  1  6
  7 16  1  0
  7 22  1  6
  7 11  1  0
  8 10  1  0
  8 25  1  1
  9 17  2  0
 11 12  1  0
 11 27  1  1
 13 14  1  0
 14 26  1  6
 15 18  1  0
 16 20  2  0
 16 28  1  0
 17 18  1  0
 18 21  2  0
 22 33  1  0
 28 29  1  0
 29 30  1  0
 30 31  2  0
 30 32  1  0
 33 34  2  0
 33 35  1  0
M  END
>  <Formula>  (769) 
C26H32F2O7

>  <FW>  (769) 
494.5249

>  <DSSTox_CID>  (769) 
25646

>  <NR-AR>  (769) 
1

>  <NR-AR-LBD>  (769) 
1

>  <NR-ER-LBD>  (769) 
0

>  <NR-PPAR-gamma>  (769) 
0

>  <SR-ATAD5>  (769) 
0

>  <SR-MMP>  (769) 
1

>  <SR-p53>  (769) 
0

$$$$
NCGC00167484-01
     RDKit          2D

 39 44  0  0  1  0  0  0  0  0999 V2000
    4.3025   -3.9743    0.0000 C   0  0  0  0  0  0  0  0  0  0  0  0
    4.3025   -4.7815    0.0000 C   0  0  0  0  0  0  0  0  0  0  0  0
    2.8565   -4.7815    0.0000 C   0  0  0  0  0  0  0  0  0  0  0  0
    3.5839   -5.1896    0.0000 C   0  0  0  0  0  0  0  0  0  0  0  0
    2.1468   -5.1896    0.0000 C   0  0  0  0  0  0  0  0  0  0  0  0
    5.0742   -3.7170    0.0000 C   0  0  0  0  0  0  0  0  0  0  0  0
    3.5839   -3.5573    0.0000 C   0  0  0  0  0  0  0  0  0  0  0  0
    2.8565   -3.9743    0.0000 C   0  0  0  0  0  0  0  0  0  0  0  0
    5.0742   -5.0476    0.0000 C   0  0  0  0  0  0  0  0  0  0  0  0
    5.5533   -4.3823    0.0000 C   0  0  0  0  0  0  0  0  0  0  0  0
    3.5839   -6.0235    0.0000 C   0  0  0  0  0  0  0  0  0  0  0  0
    2.1468   -6.0235    0.0000 C   0  0  0  0  0  0  0  0  0  0  0  0
    2.8565   -6.4315    0.0000 C   0  0  0  0  0  0  0  0  0  0  0  0
    4.3025   -3.1315    0.0000 C   0  0  0  0  0  0  0  0  0  0  0  0
    2.1468   -4.3734    0.0000 C   0  0  0  0  0  0  0  0  0  0  0  0
    1.4460   -4.7815    0.0000 C   0  0  0  0  0  0  0  0  0  0  0  0
    1.4460   -6.4315    0.0000 C   0  0  0  0  0  0  0  0  0  0  0  0
    0.7274   -5.1896    0.0000 C   0  0  0  0  0  0  0  0  0  0  0  0
    0.7274   -6.0235    0.0000 C   0  0  0  0  0  0  0  0  0  0  0  0
    5.7485   -3.0871    0.0000 O   0  0  0  0  0  0  0  0  0  0  0  0
    2.1468   -3.5573    0.0000 O   0  0  0  0  0  0  0  0  0  0  0  0
    6.3073   -4.3823    0.0000 O   0  0  0  0  0  0  0  0  0  0  0  0
    5.0742   -2.8920    0.0000 C   0  0  0  0  0  0  0  0  0  0  0  0
    5.7840   -2.4751    0.0000 C   0  0  0  0  0  0  0  0  0  0  0  0
    5.7840   -1.6500    0.0000 O   0  0  0  0  0  0  0  0  0  0  0  0
    0.0000   -6.4404    0.0000 O   0  0  0  0  0  0  0  0  0  0  0  0
    4.3646   -2.4839    0.0000 O   0  0  0  0  0  0  0  0  0  0  0  0
    6.5380   -3.5396    0.0000 C   0  0  0  0  0  0  0  0  0  0  0  0
    7.3098   -3.2645    0.0000 C   0  0  0  0  0  0  0  0  0  0  0  0
    7.4606   -2.4484    0.0000 C   0  0  0  0  0  0  0  0  0  0  0  0
    7.9396   -3.8057    0.0000 C   0  0  0  0  0  0  0  0  0  0  0  0
    8.2324   -2.1734    0.0000 C   0  0  0  0  0  0  0  0  0  0  0  0
    8.7114   -3.5307    0.0000 C   0  0  0  0  0  0  0  0  0  0  0  0
    8.8711   -2.7145    0.0000 C   0  0  0  0  0  0  0  0  0  0  0  0
    6.4936   -0.4169    0.0000 C   0  0  0  0  0  0  0  0  0  0  0  0
    5.7840    0.0000    0.0000 C   0  0  0  0  0  0  0  0  0  0  0  0
    7.2211    0.0000    0.0000 C   0  0  0  0  0  0  0  0  0  0  0  0
    6.4936   -1.2419    0.0000 C   0  0  0  0  0  0  0  0  0  0  0  0
    7.2211   -1.6500    0.0000 O   0  0  0  0  0  0  0  0  0  0  0  0
  1  2  1  0
  1  6  1  0
  1  7  1  0
  1 14  1  1
  2  4  1  0
  2  9  1  1
  3  8  1  1
  3  5  1  0
  3  4  1  0
  4 11  1  6
  5 12  1  0
  5 15  1  1
  5 16  1  0
  6 10  1  0
  6 20  1  0
  6 23  1  1
  7  8  1  0
  8 21  1  1
 10  9  1  6
 10 22  1  0
 11 13  1  0
 12 17  2  0
 12 13  1  0
 16 18  2  0
 17 19  1  0
 18 19  1  0
 19 26  2  0
 20 28  1  0
 22 28  1  0
 23 24  1  0
 23 27  2  0
 24 25  1  0
 25 38  1  0
 28 29  1  6
 29 30  1  0
 29 31  1  0
 30 32  1  0
 31 33  1  0
 32 34  1  0
 33 34  1  0
 35 36  1  0
 35 37  1  0
 35 38  1  0
 38 39  2  0
M  END
>  <Formula>  (770) 
C32H44O7

>  <FW>  (770) 
540.6876

>  <DSSTox_CID>  (770) 
26659

>  <NR-AR>  (770) 
1

>  <NR-ER-LBD>  (770) 
0

>  <NR-PPAR-gamma>  (770) 
0

>  <NR-AhR>  (770) 
0

>  <SR-ATAD5>  (770) 
0

>  <SR-MMP>  (770) 
1

>  <SR-p53>  (770) 
0

$$$$
NCGC00183597-01
     RDKit          2D

 37 40  0  0  1  0  0  0  0  0999 V2000
    4.3165   -3.5652    0.0000 C   0  0  0  0  0  0  0  0  0  0  0  0
    2.8875   -4.3902    0.0000 C   0  0  0  0  0  0  0  0  0  0  0  0
    2.1656   -4.7953    0.0000 C   0  0  0  0  0  0  0  0  0  0  0  0
    4.3165   -4.3902    0.0000 C   0  0  0  0  0  0  0  0  0  0  0  0
    3.5946   -4.7953    0.0000 C   0  0  0  0  0  0  0  0  0  0  0  0
    5.0899   -3.3074    0.0000 C   0  0  0  0  0  0  0  0  0  0  0  0
    2.1656   -5.6276    0.0000 C   0  0  0  0  0  0  0  0  0  0  0  0
    2.8875   -3.5652    0.0000 C   0  0  0  0  0  0  0  0  0  0  0  0
    3.5946   -3.1527    0.0000 C   0  0  0  0  0  0  0  0  0  0  0  0
    5.5908   -3.9777    0.0000 C   0  0  0  0  0  0  0  0  0  0  0  0
    1.4658   -4.3902    0.0000 C   0  0  0  0  0  0  0  0  0  0  0  0
    5.1047   -4.6333    0.0000 C   0  0  0  0  0  0  0  0  0  0  0  0
    1.4658   -6.0475    0.0000 C   0  0  0  0  0  0  0  0  0  0  0  0
    5.0899   -2.4603    0.0000 C   0  0  0  0  0  0  0  0  0  0  0  0
    3.5946   -5.6276    0.0000 C   0  0  0  0  0  0  0  0  0  0  0  0
    0.7439   -4.7953    0.0000 C   0  0  0  0  0  0  0  0  0  0  0  0
    0.7439   -5.6276    0.0000 C   0  0  0  0  0  0  0  0  0  0  0  0
    2.8875   -6.0475    0.0000 C   0  0  0  0  0  0  0  0  0  0  0  0
    2.8654   -5.1047    0.0000 F   0  0  0  0  0  0  0  0  0  0  0  0
    5.8044   -2.0625    0.0000 O   0  0  0  0  0  0  0  0  0  0  0  0
    0.0000   -6.0549    0.0000 O   0  0  0  0  0  0  0  0  0  0  0  0
    5.9370   -3.3147    0.0000 O   0  0  0  0  0  0  0  0  0  0  0  0
    4.3165   -2.7328    0.0000 C   0  0  0  0  0  0  0  0  0  0  0  0
    2.1509   -3.1453    0.0000 O   0  0  0  0  0  0  0  0  0  0  0  0
    2.1656   -3.9777    0.0000 C   0  0  0  0  0  0  0  0  0  0  0  0
    6.4158   -3.9703    0.0000 C   0  0  0  0  0  0  0  0  0  0  0  0
    4.3975   -2.0625    0.0000 C   0  0  0  0  0  0  0  0  0  0  0  0
    4.3975   -1.2375    0.0000 O   0  0  0  0  0  0  0  0  0  0  0  0
    6.6515   -2.8948    0.0000 C   0  0  0  0  0  0  0  0  0  0  0  0
    7.3660   -3.3147    0.0000 O   0  0  0  0  0  0  0  0  0  0  0  0
    6.6515   -2.0772    0.0000 C   0  0  0  0  0  0  0  0  0  0  0  0
    7.3660   -1.6647    0.0000 C   0  0  0  0  0  0  0  0  0  0  0  0
    7.3660   -0.8397    0.0000 C   0  0  0  0  0  0  0  0  0  0  0  0
    3.6830   -0.8250    0.0000 C   0  0  0  0  0  0  0  0  0  0  0  0
    3.6830    0.0000    0.0000 O   0  0  0  0  0  0  0  0  0  0  0  0
    2.9685   -1.2227    0.0000 C   0  0  0  0  0  0  0  0  0  0  0  0
    2.2540   -0.8250    0.0000 C   0  0  0  0  0  0  0  0  0  0  0  0
  1  4  1  0
  1  6  1  0
  1  9  1  0
  1 23  1  1
  2  8  1  0
  2  3  1  0
  2 19  1  6
  2  5  1  0
  3  7  1  0
  3 11  1  0
  3 25  1  1
  4  5  1  0
  4 12  1  1
  5 15  1  6
  6 10  1  0
  6 14  1  0
  6 22  1  6
  7 13  2  0
  7 18  1  0
  8  9  1  0
  8 24  1  1
 10 26  1  1
 10 12  1  0
 11 16  2  0
 13 17  1  0
 14 20  2  0
 14 27  1  0
 15 18  1  0
 16 17  1  0
 17 21  2  0
 22 29  1  0
 27 28  1  0
 28 34  1  0
 29 30  2  0
 29 31  1  0
 31 32  1  0
 32 33  1  0
 34 35  2  0
 34 36  1  0
 36 37  1  0
M  END
>  <Formula>  (771) 
C29H39FO7

>  <FW>  (771) 
518.6142

>  <DSSTox_CID>  (771) 
2671

>  <NR-AR>  (771) 
1

>  <NR-AR-LBD>  (771) 
1

>  <NR-ER>  (771) 
0

>  <NR-ER-LBD>  (771) 
0

>  <SR-ATAD5>  (771) 
0

>  <SR-MMP>  (771) 
1

>  <SR-p53>  (771) 
0

$$$$
NCGC00255185-01
     RDKit          2D

 34 37  0  0  1  0  0  0  0  0999 V2000
    4.3101   -3.1478    0.0000 C   0  0  0  0  0  0  0  0  0  0  0  0
    2.8815   -3.9549    0.0000 C   0  0  0  0  0  0  0  0  0  0  0  0
    2.1631   -4.3666    0.0000 C   0  0  0  0  0  0  0  0  0  0  0  0
    4.3101   -3.9549    0.0000 C   0  0  0  0  0  0  0  0  0  0  0  0
    3.5917   -4.3666    0.0000 C   0  0  0  0  0  0  0  0  0  0  0  0
    5.0849   -2.8895    0.0000 C   0  0  0  0  0  0  0  0  0  0  0  0
    2.1631   -5.2060    0.0000 C   0  0  0  0  0  0  0  0  0  0  0  0
    2.8815   -3.1478    0.0000 C   0  0  0  0  0  0  0  0  0  0  0  0
    3.5917   -2.7281    0.0000 C   0  0  0  0  0  0  0  0  0  0  0  0
    5.5853   -3.5513    0.0000 C   0  0  0  0  0  0  0  0  0  0  0  0
    1.4690   -3.9549    0.0000 C   0  0  0  0  0  0  0  0  0  0  0  0
    5.0930   -4.2132    0.0000 C   0  0  0  0  0  0  0  0  0  0  0  0
    1.4690   -5.6257    0.0000 C   0  0  0  0  0  0  0  0  0  0  0  0
    5.0849   -2.0421    0.0000 C   0  0  0  0  0  0  0  0  0  0  0  0
    3.5917   -5.2060    0.0000 C   0  0  0  0  0  0  0  0  0  0  0  0
    0.7426   -4.3666    0.0000 C   0  0  0  0  0  0  0  0  0  0  0  0
    0.7426   -5.2060    0.0000 C   0  0  0  0  0  0  0  0  0  0  0  0
    2.8815   -5.6257    0.0000 C   0  0  0  0  0  0  0  0  0  0  0  0
    2.8653   -4.6733    0.0000 F   0  0  0  0  0  0  0  0  0  0  0  0
    4.3746   -1.6384    0.0000 O   0  0  0  0  0  0  0  0  0  0  0  0
    0.0000   -5.6338    0.0000 O   0  0  0  0  0  0  0  0  0  0  0  0
    5.9324   -2.8895    0.0000 O   0  0  0  0  0  0  0  0  0  0  0  0
    4.3101   -2.3003    0.0000 C   0  0  0  0  0  0  0  0  0  0  0  0
    2.1550   -2.7200    0.0000 O   0  0  0  0  0  0  0  0  0  0  0  0
    2.1631   -3.5513    0.0000 C   0  0  0  0  0  0  0  0  0  0  0  0
    6.4086   -3.5433    0.0000 C   0  0  0  0  0  0  0  0  0  0  0  0
    5.7871   -1.6384    0.0000 C   0  0  0  0  0  0  0  0  0  0  0  0
    5.7791   -0.8071    0.0000 O   0  0  0  0  0  0  0  0  0  0  0  0
    6.6427   -2.4779    0.0000 C   0  0  0  0  0  0  0  0  0  0  0  0
    7.3610   -2.8895    0.0000 O   0  0  0  0  0  0  0  0  0  0  0  0
    6.6427   -1.6465    0.0000 C   0  0  0  0  0  0  0  0  0  0  0  0
    7.3610   -1.2430    0.0000 C   0  0  0  0  0  0  0  0  0  0  0  0
    7.3610   -0.4278    0.0000 C   0  0  0  0  0  0  0  0  0  0  0  0
    8.0713    0.0000    0.0000 C   0  0  0  0  0  0  0  0  0  0  0  0
  1  4  1  0
  1  6  1  0
  1  9  1  0
  1 23  1  1
  2  8  1  0
  2  3  1  0
  2 19  1  6
  2  5  1  0
  3  7  1  0
  3 11  1  0
  3 25  1  1
  4  5  1  0
  4 12  1  1
  5 15  1  6
  6 10  1  0
  6 14  1  0
  6 22  1  6
  7 13  2  0
  7 18  1  0
  8  9  1  0
  8 24  1  1
 10 26  1  1
 10 12  1  0
 11 16  2  0
 13 17  1  0
 14 20  2  0
 14 27  1  0
 15 18  1  0
 16 17  1  0
 17 21  2  0
 22 29  1  0
 27 28  1  0
 29 30  2  0
 29 31  1  0
 31 32  1  0
 32 33  1  0
 33 34  1  0
M  END
>  <Formula>  (772) 
C27H37FO6

>  <FW>  (772) 
476.5775

>  <DSSTox_CID>  (772) 
2673

>  <NR-AR>  (772) 
1

>  <NR-AR-LBD>  (772) 
1

>  <NR-ER-LBD>  (772) 
0

>  <SR-ATAD5>  (772) 
0

>  <SR-HSE>  (772) 
0

>  <SR-MMP>  (772) 
1

>  <SR-p53>  (772) 
0

$$$$
NCGC00022408-03
     RDKit          2D

 35 38  0  0  1  0  0  0  0  0999 V2000
    2.1780   -3.2753    0.0000 C   0  0  0  0  0  0  0  0  0  0  0  0
    4.2900   -2.0708    0.0000 C   0  0  0  0  0  0  0  0  0  0  0  0
    2.8628   -2.8958    0.0000 C   0  0  0  0  0  0  0  0  0  0  0  0
    2.1780   -4.1250    0.0000 C   0  0  0  0  0  0  0  0  0  0  0  0
    4.2900   -2.8958    0.0000 C   0  0  0  0  0  0  0  0  0  0  0  0
    3.5805   -3.2753    0.0000 C   0  0  0  0  0  0  0  0  0  0  0  0
    5.0903   -1.7903    0.0000 C   0  0  0  0  0  0  0  0  0  0  0  0
    2.8628   -2.0708    0.0000 C   0  0  0  0  0  0  0  0  0  0  0  0
    1.4603   -2.8958    0.0000 C   0  0  0  0  0  0  0  0  0  0  0  0
    3.5805   -1.6500    0.0000 C   0  0  0  0  0  0  0  0  0  0  0  0
    5.5522   -2.4750    0.0000 C   0  0  0  0  0  0  0  0  0  0  0  0
    5.0573   -3.1433    0.0000 C   0  0  0  0  0  0  0  0  0  0  0  0
    3.5805   -4.1250    0.0000 C   0  0  0  0  0  0  0  0  0  0  0  0
    2.8628   -4.5458    0.0000 C   0  0  0  0  0  0  0  0  0  0  0  0
    1.4603   -4.5458    0.0000 C   0  0  0  0  0  0  0  0  0  0  0  0
    5.0903   -0.9653    0.0000 C   0  0  0  0  0  0  0  0  0  0  0  0
    7.0950   -0.6683    0.0000 C   0  0  0  0  0  0  0  0  0  0  0  0
    0.7177   -3.2753    0.0000 C   0  0  0  0  0  0  0  0  0  0  0  0
    0.7177   -4.1250    0.0000 C   0  0  0  0  0  0  0  0  0  0  0  0
    7.6478   -1.0230    0.0000 C   0  0  0  0  0  0  0  0  0  0  0  0
    6.5175   -0.9983    0.0000 O   0  0  0  0  0  0  0  0  0  0  0  0
    5.8080   -0.5775    0.0000 C   0  0  0  0  0  0  0  0  0  0  0  0
    2.8298   -3.5805    0.0000 F   0  0  0  0  0  0  0  0  0  0  0  0
    7.0950    0.0000    0.0000 O   0  0  0  0  0  0  0  0  0  0  0  0
    4.3725   -0.5610    0.0000 O   0  0  0  0  0  0  0  0  0  0  0  0
    0.0000   -4.5623    0.0000 O   0  0  0  0  0  0  0  0  0  0  0  0
    5.9153   -1.7903    0.0000 O   0  0  0  0  0  0  0  0  0  0  0  0
    2.1780   -2.4750    0.0000 C   0  0  0  0  0  0  0  0  0  0  0  0
    4.2900   -1.2128    0.0000 C   0  0  0  0  0  0  0  0  0  0  0  0
    2.1450   -1.6500    0.0000 O   0  0  0  0  0  0  0  0  0  0  0  0
    2.8298   -5.2306    0.0000 F   0  0  0  0  0  0  0  0  0  0  0  0
    6.3772   -2.4503    0.0000 C   0  0  0  0  0  0  0  0  0  0  0  0
    7.2848   -1.6253    0.0000 C   0  0  0  0  0  0  0  0  0  0  0  0
    8.0273   -0.4455    0.0000 C   0  0  0  0  0  0  0  0  0  0  0  0
    8.2501   -1.4025    0.0000 C   0  0  0  0  0  0  0  0  0  0  0  0
  1  3  1  0
  1  4  1  0
  1  9  1  0
  1 28  1  0
  2 10  1  0
  2  7  1  0
  2 29  1  0
  2  5  1  0
  3  6  1  0
  3  8  1  0
  3 23  1  6
  4 14  1  0
  4 15  2  0
  5  6  1  0
  5 12  1  1
  6 13  1  0
  7 16  1  0
  7 27  1  6
  7 11  1  0
  8 10  1  0
  8 30  1  1
  9 18  2  0
 11 12  1  0
 11 32  1  6
 13 14  1  0
 14 31  1  6
 15 19  1  0
 16 22  1  0
 16 25  2  0
 17 21  1  0
 17 20  1  0
 17 24  2  0
 18 19  1  0
 19 26  2  0
 20 33  1  0
 20 34  1  0
 20 35  1  0
 21 22  1  0
M  END
>  <Formula>  (773) 
C27H36F2O6

>  <FW>  (773) 
494.5679

>  <DSSTox_CID>  (773) 
28931

>  <NR-AR>  (773) 
1

>  <NR-AR-LBD>  (773) 
1

>  <NR-ER>  (773) 
0

>  <NR-ER-LBD>  (773) 
0

>  <NR-PPAR-gamma>  (773) 
0

>  <SR-ATAD5>  (773) 
0

>  <SR-MMP>  (773) 
1

>  <SR-p53>  (773) 
0

$$$$
NCGC00159316-02
     RDKit          2D

 34 37  0  0  1  0  0  0  0  0999 V2000
    4.2948   -3.1366    0.0000 C   0  0  0  0  0  0  0  0  0  0  0  0
    2.8712   -3.9408    0.0000 C   0  0  0  0  0  0  0  0  0  0  0  0
    2.1554   -4.3510    0.0000 C   0  0  0  0  0  0  0  0  0  0  0  0
    4.2948   -3.9408    0.0000 C   0  0  0  0  0  0  0  0  0  0  0  0
    3.5789   -4.3510    0.0000 C   0  0  0  0  0  0  0  0  0  0  0  0
    5.0668   -2.8793    0.0000 C   0  0  0  0  0  0  0  0  0  0  0  0
    2.1554   -5.1875    0.0000 C   0  0  0  0  0  0  0  0  0  0  0  0
    2.8712   -3.1366    0.0000 C   0  0  0  0  0  0  0  0  0  0  0  0
    3.5789   -2.7184    0.0000 C   0  0  0  0  0  0  0  0  0  0  0  0
    5.5654   -3.5387    0.0000 C   0  0  0  0  0  0  0  0  0  0  0  0
    1.4638   -3.9408    0.0000 C   0  0  0  0  0  0  0  0  0  0  0  0
    5.0829   -4.1982    0.0000 C   0  0  0  0  0  0  0  0  0  0  0  0
    1.4638   -5.6057    0.0000 C   0  0  0  0  0  0  0  0  0  0  0  0
    5.0668   -2.0348    0.0000 C   0  0  0  0  0  0  0  0  0  0  0  0
    3.5789   -5.1875    0.0000 C   0  0  0  0  0  0  0  0  0  0  0  0
    0.7319   -4.3510    0.0000 C   0  0  0  0  0  0  0  0  0  0  0  0
    0.7319   -5.1875    0.0000 C   0  0  0  0  0  0  0  0  0  0  0  0
    2.8712   -5.6057    0.0000 C   0  0  0  0  0  0  0  0  0  0  0  0
    2.8551   -4.6566    0.0000 F   0  0  0  0  0  0  0  0  0  0  0  0
    4.3671   -1.6246    0.0000 O   0  0  0  0  0  0  0  0  0  0  0  0
    0.0000   -5.6137    0.0000 O   0  0  0  0  0  0  0  0  0  0  0  0
    5.9113   -2.8793    0.0000 O   0  0  0  0  0  0  0  0  0  0  0  0
    4.2948   -2.2921    0.0000 C   0  0  0  0  0  0  0  0  0  0  0  0
    2.1474   -2.7103    0.0000 O   0  0  0  0  0  0  0  0  0  0  0  0
    2.1554   -3.5387    0.0000 C   0  0  0  0  0  0  0  0  0  0  0  0
    6.3858   -3.5226    0.0000 C   0  0  0  0  0  0  0  0  0  0  0  0
    5.7665   -1.6246    0.0000 C   0  0  0  0  0  0  0  0  0  0  0  0
    5.7585   -0.8043    0.0000 O   0  0  0  0  0  0  0  0  0  0  0  0
    6.6190   -2.4691    0.0000 C   0  0  0  0  0  0  0  0  0  0  0  0
    7.3348   -2.8793    0.0000 O   0  0  0  0  0  0  0  0  0  0  0  0
    6.6190   -1.6407    0.0000 C   0  0  0  0  0  0  0  0  0  0  0  0
    7.3348   -1.2385    0.0000 C   0  0  0  0  0  0  0  0  0  0  0  0
    7.3348   -0.4262    0.0000 C   0  0  0  0  0  0  0  0  0  0  0  0
    8.0426    0.0000    0.0000 C   0  0  0  0  0  0  0  0  0  0  0  0
  1  4  1  0
  1  6  1  0
  1  9  1  0
  1 23  1  1
  2  8  1  0
  2  3  1  0
  2 19  1  6
  2  5  1  0
  3  7  1  0
  3 11  1  0
  3 25  1  1
  4  5  1  0
  4 12  1  1
  5 15  1  6
  6 10  1  0
  6 14  1  0
  6 22  1  6
  7 13  2  0
  7 18  1  0
  8  9  1  0
  8 24  1  1
 10 26  1  6
 10 12  1  0
 11 16  2  0
 13 17  1  0
 14 20  2  0
 14 27  1  0
 15 18  1  0
 16 17  1  0
 17 21  2  0
 22 29  1  0
 27 28  1  0
 29 30  2  0
 29 31  1  0
 31 32  1  0
 32 33  1  0
 33 34  1  0
M  END
>  <Formula>  (774) 
C27H37FO6

>  <FW>  (774) 
476.5775

>  <DSSTox_CID>  (774) 
2904

>  <NR-AR>  (774) 
1

>  <NR-AR-LBD>  (774) 
1

>  <NR-ER>  (774) 
0

>  <NR-ER-LBD>  (774) 
0

>  <NR-PPAR-gamma>  (774) 
0

>  <SR-ATAD5>  (774) 
0

>  <SR-MMP>  (774) 
1

>  <SR-p53>  (774) 
0

$$$$
NCGC00095078-01
     RDKit          2D

 32 35  0  0  1  0  0  0  0  0999 V2000
    4.2932   -1.4898    0.0000 C   0  0  0  0  0  0  0  0  0  0  0  0
    2.8755   -2.2988    0.0000 C   0  0  0  0  0  0  0  0  0  0  0  0
    5.0622   -1.2575    0.0000 C   0  0  0  0  0  0  0  0  0  0  0  0
    2.1547   -2.7153    0.0000 C   0  0  0  0  0  0  0  0  0  0  0  0
    4.2932   -2.2988    0.0000 C   0  0  0  0  0  0  0  0  0  0  0  0
    3.5884   -2.7153    0.0000 C   0  0  0  0  0  0  0  0  0  0  0  0
    2.1547   -3.5403    0.0000 C   0  0  0  0  0  0  0  0  0  0  0  0
    2.8755   -1.4898    0.0000 C   0  0  0  0  0  0  0  0  0  0  0  0
    3.5884   -1.0733    0.0000 C   0  0  0  0  0  0  0  0  0  0  0  0
    5.5428   -1.8983    0.0000 C   0  0  0  0  0  0  0  0  0  0  0  0
    1.4498   -2.2988    0.0000 C   0  0  0  0  0  0  0  0  0  0  0  0
    5.0622   -2.5551    0.0000 C   0  0  0  0  0  0  0  0  0  0  0  0
    1.4498   -3.9488    0.0000 C   0  0  0  0  0  0  0  0  0  0  0  0
    5.0622   -0.4165    0.0000 C   0  0  0  0  0  0  0  0  0  0  0  0
    5.8792   -1.3216    0.0000 O   0  0  0  0  0  0  0  0  0  0  0  0
    3.5884   -3.5403    0.0000 C   0  0  0  0  0  0  0  0  0  0  0  0
    0.7289   -2.7153    0.0000 C   0  0  0  0  0  0  0  0  0  0  0  0
    0.7289   -3.5403    0.0000 C   0  0  0  0  0  0  0  0  0  0  0  0
    6.6001   -0.8971    0.0000 C   0  0  0  0  0  0  0  0  0  0  0  0
    2.8755   -3.9488    0.0000 C   0  0  0  0  0  0  0  0  0  0  0  0
    2.8755   -3.1238    0.0000 F   0  0  0  0  0  0  0  0  0  0  0  0
    5.7670    0.0000    0.0000 O   0  0  0  0  0  0  0  0  0  0  0  0
    6.6001   -0.0641    0.0000 O   0  0  0  0  0  0  0  0  0  0  0  0
    0.0000   -3.9568    0.0000 O   0  0  0  0  0  0  0  0  0  0  0  0
    4.2932   -0.6488    0.0000 C   0  0  0  0  0  0  0  0  0  0  0  0
    2.1386   -1.0733    0.0000 O   0  0  0  0  0  0  0  0  0  0  0  0
    2.1547   -1.9063    0.0000 C   0  0  0  0  0  0  0  0  0  0  0  0
    4.3493    0.0000    0.0000 C   0  0  0  0  0  0  0  0  0  0  0  0
    3.6604   -0.4165    0.0000 Cl  0  0  0  0  0  0  0  0  0  0  0  0
    6.3678   -1.8983    0.0000 C   0  0  0  0  0  0  0  0  0  0  0  0
    7.3129   -1.3216    0.0000 C   0  0  0  0  0  0  0  0  0  0  0  0
    8.0098   -0.8891    0.0000 C   0  0  0  0  0  0  0  0  0  0  0  0
  1  3  1  0
  1  5  1  0
  1  9  1  0
  1 25  1  1
  2  8  1  0
  2  4  1  0
  2 21  1  6
  2  6  1  0
  3 10  1  0
  3 14  1  0
  3 15  1  6
  4  7  1  0
  4 11  1  0
  4 27  1  1
  5  6  1  0
  5 12  1  1
  6 16  1  6
  7 13  2  0
  7 20  1  0
  8  9  1  0
  8 26  1  1
 10 30  1  1
 10 12  1  0
 11 17  2  0
 13 18  1  0
 14 22  2  0
 14 28  1  0
 15 19  1  0
 16 20  1  0
 17 18  1  0
 18 24  2  0
 19 23  2  0
 19 31  1  0
 28 29  1  0
 31 32  1  0
M  END
>  <Formula>  (775) 
C25H32ClFO5

>  <FW>  (775) 
466.9700

>  <DSSTox_CID>  (775) 
25907

>  <NR-AR>  (775) 
1

>  <NR-AR-LBD>  (775) 
1

>  <NR-ER>  (775) 
0

>  <NR-ER-LBD>  (775) 
0

>  <NR-PPAR-gamma>  (775) 
0

>  <NR-AhR>  (775) 
1

>  <SR-ATAD5>  (775) 
0

>  <SR-MMP>  (775) 
1

>  <SR-p53>  (775) 
0

$$$$
NCGC00159428-02
     RDKit          2D

 54 61  0  0  1  0  0  0  0  0999 V2000
    8.6378   -5.6722    0.0000 O   0  0  0  0  0  0  0  0  0  0  0  0
    7.9180   -5.2691    0.0000 C   0  0  0  0  0  0  0  0  0  0  0  0
    7.1982   -5.6722    0.0000 C   0  0  0  0  0  0  0  0  0  0  0  0
    7.9180   -4.4197    0.0000 O   0  0  0  0  0  0  0  0  0  0  0  0
    6.4784   -5.2691    0.0000 C   0  0  0  0  0  0  0  0  0  0  0  0
    7.1982   -4.0166    0.0000 C   0  0  0  0  0  0  0  0  0  0  0  0
    6.4784   -4.4197    0.0000 C   0  0  0  0  0  0  0  0  0  0  0  0
    5.7586   -4.0166    0.0000 O   0  0  0  0  0  0  0  0  0  0  0  0
    5.0388   -4.4197    0.0000 C   0  0  0  0  0  0  0  0  0  0  0  0
    5.0388   -5.2691    0.0000 O   0  0  0  0  0  0  0  0  0  0  0  0
    4.3189   -4.0166    0.0000 C   0  0  0  0  0  0  0  0  0  0  0  0
    4.3189   -5.6722    0.0000 C   0  0  0  0  0  0  0  0  0  0  0  0
    3.5991   -4.4197    0.0000 C   0  0  0  0  0  0  0  0  0  0  0  0
    3.5991   -5.2691    0.0000 C   0  0  0  0  0  0  0  0  0  0  0  0
    2.8793   -5.6722    0.0000 O   0  0  0  0  0  0  0  0  0  0  0  0
    2.1594   -5.2691    0.0000 C   0  0  0  0  0  0  0  0  0  0  0  0
    1.4396   -5.6722    0.0000 C   0  0  0  0  0  0  0  0  0  0  0  0
    2.1594   -4.4197    0.0000 O   0  0  0  0  0  0  0  0  0  0  0  0
    0.7198   -5.2691    0.0000 C   0  0  0  0  0  0  0  0  0  0  0  0
    1.4396   -4.0166    0.0000 C   0  0  0  0  0  0  0  0  0  0  0  0
    0.7198   -4.4197    0.0000 C   0  0  0  0  0  0  0  0  0  0  0  0
    5.7586   -5.6722    0.0000 O   0  0  0  0  0  0  0  0  0  0  0  0
    2.8793   -4.0166    0.0000 O   0  0  0  0  0  0  0  0  0  0  0  0
    0.0000   -4.0166    0.0000 O   0  0  0  0  0  0  0  0  0  0  0  0
    0.0000   -5.6722    0.0000 O   0  0  0  0  0  0  0  0  0  0  0  0
    1.4396   -3.1960    0.0000 C   0  0  0  0  0  0  0  0  0  0  0  0
    4.3189   -6.5071    0.0000 C   0  0  0  0  0  0  0  0  0  0  0  0
    7.1982   -3.1960    0.0000 C   0  0  0  0  0  0  0  0  0  0  0  0
    9.3576   -5.2691    0.0000 C   0  0  0  0  0  0  0  0  0  0  0  0
    9.3576   -4.4197    0.0000 C   0  0  0  0  0  0  0  0  0  0  0  0
   10.0774   -5.6722    0.0000 C   0  0  0  0  0  0  0  0  0  0  0  0
   10.0774   -4.0166    0.0000 C   0  0  0  0  0  0  0  0  0  0  0  0
   10.7973   -5.2691    0.0000 C   0  0  0  0  0  0  0  0  0  0  0  0
   10.7973   -4.4341    0.0000 C   0  0  0  0  0  0  0  0  0  0  0  0
   11.5171   -5.6722    0.0000 C   0  0  0  0  0  0  0  0  0  0  0  0
   12.2369   -5.2691    0.0000 C   0  0  0  0  0  0  0  0  0  0  0  0
   11.5171   -4.0166    0.0000 C   0  0  0  0  0  0  0  0  0  0  0  0
   12.2369   -4.4197    0.0000 C   0  0  0  0  0  0  0  0  0  0  0  0
   11.5171   -3.1960    0.0000 C   0  0  0  0  0  0  0  0  0  0  0  0
   12.2369   -2.7641    0.0000 C   0  0  0  0  0  0  0  0  0  0  0  0
   12.9568   -4.0166    0.0000 C   0  0  0  0  0  0  0  0  0  0  0  0
   12.9568   -3.1960    0.0000 C   0  0  0  0  0  0  0  0  0  0  0  0
   14.3964   -4.0166    0.0000 C   0  0  0  0  0  0  0  0  0  0  0  0
   13.6766   -2.7641    0.0000 C   0  0  0  0  0  0  0  0  0  0  0  0
   14.3964   -3.1960    0.0000 C   0  0  0  0  0  0  0  0  0  0  0  0
   13.6766   -1.9435    0.0000 C   0  0  0  0  0  0  0  0  0  0  0  0
   12.9999   -1.4684    0.0000 C   0  0  0  0  0  0  0  0  0  0  0  0
   14.3388   -1.4684    0.0000 C   0  0  0  0  0  0  0  0  0  0  0  0
   13.2591   -0.6622    0.0000 C   0  0  0  0  0  0  0  0  0  0  0  0
   14.0941   -0.6622    0.0000 O   0  0  0  0  0  0  0  0  0  0  0  0
   10.7973   -3.5991    0.0000 C   0  0  0  0  0  0  0  0  0  0  0  0
   12.9568   -4.8660    0.0000 O   0  0  0  0  0  0  0  0  0  0  0  0
   12.9568   -2.3610    0.0000 C   0  0  0  0  0  0  0  0  0  0  0  0
   12.7552    0.0000    0.0000 O   0  0  0  0  0  0  0  0  0  0  0  0
  2  1  1  1
 29  1  1  1
  2  3  1  0
  2  4  1  0
  3  5  1  0
  4  6  1  0
  5  7  1  0
  5 22  1  6
  6  7  1  0
  6 28  1  1
  7  8  1  6
  9  8  1  6
  9 10  1  0
  9 11  1  0
 10 12  1  0
 11 13  1  0
 12 14  1  0
 12 27  1  6
 13 14  1  0
 13 23  1  1
 14 15  1  1
 16 15  1  1
 16 17  1  0
 16 18  1  0
 17 19  1  0
 18 20  1  0
 19 21  1  0
 19 25  1  6
 20 21  1  0
 20 26  1  1
 21 24  1  6
 29 30  1  0
 29 31  1  0
 30 32  1  0
 33 31  1  6
 32 34  1  0
 33 35  1  0
 33 34  1  0
 34 37  1  0
 34 51  1  1
 35 36  1  0
 38 36  1  6
 37 39  1  1
 37 38  1  0
 38 41  1  0
 39 40  1  0
 40 42  1  0
 41 43  1  0
 41 42  1  0
 41 52  1  1
 42 44  1  0
 42 53  1  1
 43 45  1  0
 44 45  1  1
 44 46  1  0
 46 47  2  0
 46 48  1  0
 47 49  1  0
 48 50  1  0
 49 50  1  0
 49 54  2  0
M  END
>  <Formula>  (776) 
C41H64O13

>  <FW>  (776) 
764.9391

>  <DSSTox_CID>  (776) 
2933

>  <NR-AR-LBD>  (776) 
1

>  <SR-MMP>  (776) 
1

>  <SR-p53>  (776) 
1

$$$$
NCGC00257022-01
     RDKit          2D

 55 62  0  0  1  0  0  0  0  0999 V2000
    8.6371   -5.6717    0.0000 O   0  0  0  0  0  0  0  0  0  0  0  0
    7.9174   -5.2687    0.0000 C   0  0  0  0  0  0  0  0  0  0  0  0
    7.1976   -5.6717    0.0000 C   0  0  0  0  0  0  0  0  0  0  0  0
    7.9174   -4.4194    0.0000 O   0  0  0  0  0  0  0  0  0  0  0  0
    6.4778   -5.2687    0.0000 C   0  0  0  0  0  0  0  0  0  0  0  0
    7.1976   -4.0162    0.0000 C   0  0  0  0  0  0  0  0  0  0  0  0
    6.4778   -4.4194    0.0000 C   0  0  0  0  0  0  0  0  0  0  0  0
    5.7581   -4.0162    0.0000 O   0  0  0  0  0  0  0  0  0  0  0  0
    5.0383   -4.4194    0.0000 C   0  0  0  0  0  0  0  0  0  0  0  0
    5.0383   -5.2687    0.0000 O   0  0  0  0  0  0  0  0  0  0  0  0
    4.3186   -4.0162    0.0000 C   0  0  0  0  0  0  0  0  0  0  0  0
    4.3186   -5.6717    0.0000 C   0  0  0  0  0  0  0  0  0  0  0  0
    3.5988   -4.4194    0.0000 C   0  0  0  0  0  0  0  0  0  0  0  0
    3.5988   -5.2687    0.0000 C   0  0  0  0  0  0  0  0  0  0  0  0
    2.8790   -5.6717    0.0000 O   0  0  0  0  0  0  0  0  0  0  0  0
    2.1593   -5.2687    0.0000 C   0  0  0  0  0  0  0  0  0  0  0  0
    1.4396   -5.6717    0.0000 C   0  0  0  0  0  0  0  0  0  0  0  0
    2.1593   -4.4194    0.0000 O   0  0  0  0  0  0  0  0  0  0  0  0
    0.7197   -5.2687    0.0000 C   0  0  0  0  0  0  0  0  0  0  0  0
    1.4396   -4.0162    0.0000 C   0  0  0  0  0  0  0  0  0  0  0  0
    0.7197   -4.4194    0.0000 C   0  0  0  0  0  0  0  0  0  0  0  0
    5.7581   -5.6717    0.0000 O   0  0  0  0  0  0  0  0  0  0  0  0
    2.8790   -4.0162    0.0000 O   0  0  0  0  0  0  0  0  0  0  0  0
    0.0000   -4.0162    0.0000 O   0  0  0  0  0  0  0  0  0  0  0  0
    0.0000   -5.6717    0.0000 O   0  0  0  0  0  0  0  0  0  0  0  0
    1.4396   -3.1957    0.0000 C   0  0  0  0  0  0  0  0  0  0  0  0
    4.3186   -6.5066    0.0000 C   0  0  0  0  0  0  0  0  0  0  0  0
    7.1976   -3.1957    0.0000 C   0  0  0  0  0  0  0  0  0  0  0  0
    9.3569   -5.2687    0.0000 C   0  0  0  0  0  0  0  0  0  0  0  0
    9.3569   -4.4194    0.0000 C   0  0  0  0  0  0  0  0  0  0  0  0
   10.0767   -5.6717    0.0000 C   0  0  0  0  0  0  0  0  0  0  0  0
   10.0767   -4.0162    0.0000 C   0  0  0  0  0  0  0  0  0  0  0  0
   10.7964   -5.2687    0.0000 C   0  0  0  0  0  0  0  0  0  0  0  0
   10.7964   -4.4338    0.0000 C   0  0  0  0  0  0  0  0  0  0  0  0
   11.5162   -5.6717    0.0000 C   0  0  0  0  0  0  0  0  0  0  0  0
   12.2360   -5.2687    0.0000 C   0  0  0  0  0  0  0  0  0  0  0  0
   11.5162   -4.0162    0.0000 C   0  0  0  0  0  0  0  0  0  0  0  0
   12.2360   -4.4194    0.0000 C   0  0  0  0  0  0  0  0  0  0  0  0
   11.5162   -3.1957    0.0000 C   0  0  0  0  0  0  0  0  0  0  0  0
   12.2360   -2.7639    0.0000 C   0  0  0  0  0  0  0  0  0  0  0  0
   12.9557   -4.0162    0.0000 C   0  0  0  0  0  0  0  0  0  0  0  0
   12.9557   -3.1957    0.0000 C   0  0  0  0  0  0  0  0  0  0  0  0
   14.3952   -4.0162    0.0000 C   0  0  0  0  0  0  0  0  0  0  0  0
   13.6755   -2.7639    0.0000 C   0  0  0  0  0  0  0  0  0  0  0  0
   14.3952   -3.1957    0.0000 C   0  0  0  0  0  0  0  0  0  0  0  0
   13.6755   -1.9434    0.0000 C   0  0  0  0  0  0  0  0  0  0  0  0
   12.9989   -1.4683    0.0000 C   0  0  0  0  0  0  0  0  0  0  0  0
   14.3377   -1.4683    0.0000 C   0  0  0  0  0  0  0  0  0  0  0  0
   13.2580   -0.6622    0.0000 C   0  0  0  0  0  0  0  0  0  0  0  0
   14.0929   -0.6622    0.0000 O   0  0  0  0  0  0  0  0  0  0  0  0
   10.7964   -3.5988    0.0000 C   0  0  0  0  0  0  0  0  0  0  0  0
   12.9557   -4.8656    0.0000 O   0  0  0  0  0  0  0  0  0  0  0  0
   12.9557   -2.3608    0.0000 C   0  0  0  0  0  0  0  0  0  0  0  0
   12.7542    0.0000    0.0000 O   0  0  0  0  0  0  0  0  0  0  0  0
   12.2360   -1.9434    0.0000 O   0  0  0  0  0  0  0  0  0  0  0  0
  2  1  1  1
 29  1  1  1
  2  3  1  0
  2  4  1  0
  3  5  1  0
  4  6  1  0
  5  7  1  0
  5 22  1  6
  6  7  1  0
  6 28  1  1
  7  8  1  6
  9  8  1  6
  9 10  1  0
  9 11  1  0
 10 12  1  0
 11 13  1  0
 12 14  1  0
 12 27  1  6
 13 14  1  0
 13 23  1  1
 14 15  1  1
 16 15  1  1
 16 17  1  0
 16 18  1  0
 17 19  1  0
 18 20  1  0
 19 21  1  0
 19 25  1  6
 20 21  1  0
 20 26  1  1
 21 24  1  6
 29 30  1  0
 29 31  1  0
 30 32  1  0
 33 31  1  6
 32 34  1  0
 33 35  1  0
 33 34  1  0
 34 37  1  0
 34 51  1  1
 35 36  1  0
 38 36  1  6
 37 39  1  1
 37 38  1  0
 38 41  1  0
 39 40  1  0
 40 42  1  0
 40 55  1  1
 41 43  1  0
 41 42  1  0
 41 52  1  1
 42 44  1  0
 42 53  1  1
 43 45  1  0
 44 45  1  1
 44 46  1  0
 46 47  2  0
 46 48  1  0
 47 49  1  0
 48 50  1  0
 49 50  1  0
 49 54  2  0
M  END
>  <Formula>  (777) 
C41H64O14

>  <FW>  (777) 
780.9385

>  <DSSTox_CID>  (777) 
2934

>  <NR-Aromatase>  (777) 
1

>  <NR-ER-LBD>  (777) 
0

>  <SR-HSE>  (777) 
0

>  <SR-p53>  (777) 
1

$$$$
NCGC00255265-01
     RDKit          2D

 54 61  0  0  1  0  0  0  0  0999 V2000
    8.6378   -5.6722    0.0000 O   0  0  0  0  0  0  0  0  0  0  0  0
    7.9180   -5.2691    0.0000 C   0  0  0  0  0  0  0  0  0  0  0  0
    7.1982   -5.6722    0.0000 C   0  0  0  0  0  0  0  0  0  0  0  0
    7.9180   -4.4197    0.0000 O   0  0  0  0  0  0  0  0  0  0  0  0
    6.4784   -5.2691    0.0000 C   0  0  0  0  0  0  0  0  0  0  0  0
    7.1982   -4.0166    0.0000 C   0  0  0  0  0  0  0  0  0  0  0  0
    6.4784   -4.4197    0.0000 C   0  0  0  0  0  0  0  0  0  0  0  0
    5.7586   -4.0166    0.0000 O   0  0  0  0  0  0  0  0  0  0  0  0
    5.0388   -4.4197    0.0000 C   0  0  0  0  0  0  0  0  0  0  0  0
    5.0388   -5.2691    0.0000 O   0  0  0  0  0  0  0  0  0  0  0  0
    4.3189   -4.0166    0.0000 C   0  0  0  0  0  0  0  0  0  0  0  0
    4.3189   -5.6722    0.0000 C   0  0  0  0  0  0  0  0  0  0  0  0
    3.5991   -4.4197    0.0000 C   0  0  0  0  0  0  0  0  0  0  0  0
    3.5991   -5.2691    0.0000 C   0  0  0  0  0  0  0  0  0  0  0  0
    2.8793   -5.6722    0.0000 O   0  0  0  0  0  0  0  0  0  0  0  0
    2.1594   -5.2691    0.0000 C   0  0  0  0  0  0  0  0  0  0  0  0
    1.4396   -5.6722    0.0000 C   0  0  0  0  0  0  0  0  0  0  0  0
    2.1594   -4.4197    0.0000 O   0  0  0  0  0  0  0  0  0  0  0  0
    0.7198   -5.2691    0.0000 C   0  0  0  0  0  0  0  0  0  0  0  0
    1.4396   -4.0166    0.0000 C   0  0  0  0  0  0  0  0  0  0  0  0
    0.7198   -4.4197    0.0000 C   0  0  0  0  0  0  0  0  0  0  0  0
    5.7586   -5.6722    0.0000 O   0  0  0  0  0  0  0  0  0  0  0  0
    2.8793   -4.0166    0.0000 O   0  0  0  0  0  0  0  0  0  0  0  0
    0.0000   -4.0166    0.0000 O   0  0  0  0  0  0  0  0  0  0  0  0
    0.0000   -5.6722    0.0000 O   0  0  0  0  0  0  0  0  0  0  0  0
    1.4396   -3.1960    0.0000 C   0  0  0  0  0  0  0  0  0  0  0  0
    4.3189   -6.5071    0.0000 C   0  0  0  0  0  0  0  0  0  0  0  0
    7.1982   -3.1960    0.0000 C   0  0  0  0  0  0  0  0  0  0  0  0
    9.3576   -5.2691    0.0000 C   0  0  0  0  0  0  0  0  0  0  0  0
    9.3576   -4.4197    0.0000 C   0  0  0  0  0  0  0  0  0  0  0  0
   10.0774   -5.6722    0.0000 C   0  0  0  0  0  0  0  0  0  0  0  0
   10.0774   -4.0166    0.0000 C   0  0  0  0  0  0  0  0  0  0  0  0
   10.7973   -5.2691    0.0000 C   0  0  0  0  0  0  0  0  0  0  0  0
   10.7973   -4.4341    0.0000 C   0  0  0  0  0  0  0  0  0  0  0  0
   11.5171   -5.6722    0.0000 C   0  0  0  0  0  0  0  0  0  0  0  0
   12.2369   -5.2691    0.0000 C   0  0  0  0  0  0  0  0  0  0  0  0
   11.5171   -4.0166    0.0000 C   0  0  0  0  0  0  0  0  0  0  0  0
   12.2369   -4.4197    0.0000 C   0  0  0  0  0  0  0  0  0  0  0  0
   11.5171   -3.1960    0.0000 C   0  0  0  0  0  0  0  0  0  0  0  0
   12.2369   -2.7641    0.0000 C   0  0  0  0  0  0  0  0  0  0  0  0
   12.9568   -4.0166    0.0000 C   0  0  0  0  0  0  0  0  0  0  0  0
   12.9568   -3.1960    0.0000 C   0  0  0  0  0  0  0  0  0  0  0  0
   14.3964   -4.0166    0.0000 C   0  0  0  0  0  0  0  0  0  0  0  0
   13.6766   -2.7641    0.0000 C   0  0  0  0  0  0  0  0  0  0  0  0
   14.3964   -3.1960    0.0000 C   0  0  0  0  0  0  0  0  0  0  0  0
   13.6766   -1.9435    0.0000 C   0  0  0  0  0  0  0  0  0  0  0  0
   12.9999   -1.4684    0.0000 C   0  0  0  0  0  0  0  0  0  0  0  0
   14.3388   -1.4684    0.0000 C   0  0  0  0  0  0  0  0  0  0  0  0
   13.2591   -0.6622    0.0000 C   0  0  0  0  0  0  0  0  0  0  0  0
   14.0941   -0.6622    0.0000 O   0  0  0  0  0  0  0  0  0  0  0  0
   10.7973   -3.5991    0.0000 C   0  0  0  0  0  0  0  0  0  0  0  0
   12.9568   -4.8660    0.0000 O   0  0  0  0  0  0  0  0  0  0  0  0
   12.9568   -2.3610    0.0000 C   0  0  0  0  0  0  0  0  0  0  0  0
   12.7552    0.0000    0.0000 O   0  0  0  0  0  0  0  0  0  0  0  0
  2  1  1  1
 29  1  1  1
  2  3  1  0
  2  4  1  0
  3  5  1  0
  4  6  1  0
  5  7  1  0
  5 22  1  6
  6  7  1  0
  6 28  1  1
  7  8  1  6
  9  8  1  6
  9 10  1  0
  9 11  1  0
 10 12  1  0
 11 13  1  0
 12 14  1  0
 12 27  1  6
 13 14  1  0
 13 23  1  1
 14 15  1  1
 16 15  1  1
 16 17  1  0
 16 18  1  0
 17 19  1  0
 18 20  1  0
 19 21  1  0
 19 25  1  6
 20 21  1  0
 20 26  1  1
 21 24  1  6
 29 30  1  0
 29 31  1  0
 30 32  1  0
 33 31  1  6
 32 34  1  0
 33 35  1  0
 33 34  1  0
 34 37  1  0
 34 51  1  1
 35 36  1  0
 38 36  1  6
 37 39  1  1
 37 38  1  0
 38 41  1  0
 39 40  1  0
 40 42  1  0
 41 43  1  0
 41 42  1  0
 41 52  1  1
 42 44  1  0
 42 53  1  1
 43 45  1  0
 44 45  1  1
 44 46  1  0
 46 47  2  0
 46 48  1  0
 47 49  1  0
 48 50  1  0
 49 50  1  0
 49 54  2  0
M  END
>  <Formula>  (778) 
C41H64O13

>  <FW>  (778) 
764.9391

>  <DSSTox_CID>  (778) 
2933

>  <NR-AR-LBD>  (778) 
1

>  <NR-ER-LBD>  (778) 
0

>  <NR-AhR>  (778) 
0

>  <SR-HSE>  (778) 
0

>  <SR-MMP>  (778) 
1

>  <SR-p53>  (778) 
1

$$$$
NCGC00022680-04
     RDKit          2D

 28 31  0  0  1  0  0  0  0  0999 V2000
    5.4043    0.0000    0.0000 C   0  0  0  0  0  0  0  0  0  0  0  0
    4.8176   -0.5578    0.0000 C   0  0  0  0  0  0  0  0  0  0  0  0
    4.0134   -0.3477    0.0000 O   0  0  0  0  0  0  0  0  0  0  0  0
    5.0784   -1.6083    0.0000 C   0  0  0  0  0  0  0  0  0  0  0  0
    5.5565   -2.2748    0.0000 C   0  0  0  0  0  0  0  0  0  0  0  0
    5.0638   -2.9485    0.0000 C   0  0  0  0  0  0  0  0  0  0  0  0
    4.2887   -2.6877    0.0000 C   0  0  0  0  0  0  0  0  0  0  0  0
    3.5643   -3.0934    0.0000 C   0  0  0  0  0  0  0  0  0  0  0  0
    3.5643   -3.9265    0.0000 C   0  0  0  0  0  0  0  0  0  0  0  0
    2.8471   -4.3394    0.0000 C   0  0  0  0  0  0  0  0  0  0  0  0
    2.8471   -5.1652    0.0000 Cl  0  0  0  0  0  0  0  0  0  0  0  0
    2.1371   -3.9265    0.0000 C   0  0  0  0  0  0  0  0  0  0  0  0
    1.4271   -4.3394    0.0000 C   0  0  0  0  0  0  0  0  0  0  0  0
    0.7100   -3.9265    0.0000 C   0  0  0  0  0  0  0  0  0  0  0  0
    0.0000   -4.3394    0.0000 O   0  0  0  0  0  0  0  0  0  0  0  0
    0.7172   -3.0934    0.0000 C   0  0  0  0  0  0  0  0  0  0  0  0
    1.4271   -2.6877    0.0000 C   0  0  0  0  0  0  0  0  0  0  0  0
    2.1371   -3.1079    0.0000 C   0  0  0  0  0  0  0  0  0  0  0  0
    2.1516   -2.2748    0.0000 C   0  0  0  0  0  0  0  0  0  0  0  0
    2.8543   -2.6877    0.0000 C   0  0  0  0  0  0  0  0  0  0  0  0
    2.8543   -1.8691    0.0000 C   0  0  0  0  0  0  0  0  0  0  0  0
    3.5787   -1.4489    0.0000 C   0  0  0  0  0  0  0  0  0  0  0  0
    4.2887   -1.8691    0.0000 C   0  0  0  0  0  0  0  0  0  0  0  0
    4.2235   -1.0359    0.0000 C   0  0  0  0  0  0  0  0  0  0  0  0
    5.8172   -1.2605    0.0000 O   0  0  0  0  0  0  0  0  0  0  0  0
    6.4983   -1.7387    0.0000 C   0  0  0  0  0  0  0  0  0  0  0  0
    7.2444   -1.3909    0.0000 C   0  0  0  0  0  0  0  0  0  0  0  0
    6.4258   -2.5573    0.0000 O   0  0  0  0  0  0  0  0  0  0  0  0
  1  2  1  0
  2  3  2  0
  4  2  1  0
  4  5  1  0
  4 23  1  0
  4 25  1  6
  5  6  1  0
  7  6  1  1
  7  8  1  0
  7 23  1  0
  8  9  1  6
  8 20  1  0
  9 10  2  0
 10 11  1  0
 10 12  1  0
 12 13  2  0
 12 18  1  0
 13 14  1  0
 14 15  2  0
 14 16  1  0
 16 17  1  0
 17 18  1  0
 18 19  1  1
 18 20  1  0
 20 21  1  1
 21 22  1  0
 22 23  1  0
 23 24  1  1
 25 26  1  0
 26 27  1  0
 26 28  2  0
M  END
>  <Formula>  (779) 
C23H29ClO4

>  <FW>  (779) 
404.9270

>  <DSSTox_CID>  (779) 
274

>  <NR-AR>  (779) 
1

>  <NR-AR-LBD>  (779) 
1

>  <NR-ER-LBD>  (779) 
0

>  <NR-PPAR-gamma>  (779) 
0

>  <NR-AhR>  (779) 
0

>  <SR-ATAD5>  (779) 
0

>  <SR-p53>  (779) 
1

$$$$
NCGC00255229-01
     RDKit          2D

 29 33  0  0  1  0  0  0  0  0999 V2000
    2.1409   -3.0677    0.0000 C   0  0  0  0  0  0  0  0  0  0  0  0
    2.1409   -3.8771    0.0000 C   0  0  0  0  0  0  0  0  0  0  0  0
    1.4294   -2.6434    0.0000 C   0  0  0  0  0  0  0  0  0  0  0  0
    1.4294   -4.3014    0.0000 C   0  0  0  0  0  0  0  0  0  0  0  0
    0.7310   -3.0677    0.0000 C   0  0  0  0  0  0  0  0  0  0  0  0
    0.7310   -3.8771    0.0000 C   0  0  0  0  0  0  0  0  0  0  0  0
    2.8719   -2.6434    0.0000 C   0  0  0  0  0  0  0  0  0  0  0  0
    3.5703   -3.0677    0.0000 C   0  0  0  0  0  0  0  0  0  0  0  0
    2.8719   -4.3014    0.0000 C   0  0  0  0  0  0  0  0  0  0  0  0
    3.5703   -3.8967    0.0000 C   0  0  0  0  0  0  0  0  0  0  0  0
    2.8719   -1.8276    0.0000 C   0  0  0  0  0  0  0  0  0  0  0  0
    3.5703   -1.4099    0.0000 C   0  0  0  0  0  0  0  0  0  0  0  0
    4.2883   -2.6434    0.0000 C   0  0  0  0  0  0  0  0  0  0  0  0
    4.2883   -1.8276    0.0000 C   0  0  0  0  0  0  0  0  0  0  0  0
    5.0650   -2.8980    0.0000 C   0  0  0  0  0  0  0  0  0  0  0  0
    5.5611   -2.2388    0.0000 C   0  0  0  0  0  0  0  0  0  0  0  0
    5.0650   -1.5665    0.0000 C   0  0  0  0  0  0  0  0  0  0  0  0
    4.5951   -0.9073    0.0000 C   0  0  0  0  0  0  0  0  0  0  0  0
    5.8548   -1.3119    0.0000 O   0  0  0  0  0  0  0  0  0  0  0  0
    5.0781   -0.2284    0.0000 C   0  0  0  0  0  0  0  0  0  0  0  0
    5.8548   -0.4961    0.0000 C   0  0  0  0  0  0  0  0  0  0  0  0
    4.2426   -0.9986    0.0000 C   0  0  0  0  0  0  0  0  0  0  0  0
    0.0000   -4.3014    0.0000 O   0  0  0  0  0  0  0  0  0  0  0  0
    6.5271    0.0000    0.0000 O   0  0  0  0  0  0  0  0  0  0  0  0
    2.1409   -2.2257    0.0000 C   0  0  0  0  0  0  0  0  0  0  0  0
    4.2883   -4.3014    0.0000 S   0  0  0  0  0  0  0  0  0  0  0  0
    4.2883   -5.1303    0.0000 C   0  0  0  0  0  0  0  0  0  0  0  0
    4.9998   -5.5415    0.0000 O   0  0  0  0  0  0  0  0  0  0  0  0
    3.5703   -5.5415    0.0000 C   0  0  0  0  0  0  0  0  0  0  0  0
  1  3  1  0
  1  7  1  0
  1  2  1  0
  1 25  1  1
  2  4  2  0
  2  9  1  0
  3  5  1  0
  4  6  1  0
  5  6  1  0
  6 23  2  0
  7 11  1  1
  7  8  1  0
  8 10  1  6
  8 13  1  0
  9 10  1  0
 10 26  1  6
 11 12  1  0
 12 14  1  0
 13 15  1  1
 13 14  1  0
 14 17  1  0
 14 22  1  1
 15 16  1  0
 17 16  1  6
 17 18  1  0
 17 19  1  0
 18 20  1  0
 19 21  1  0
 20 21  1  0
 21 24  2  0
 26 27  1  0
 27 28  2  0
 27 29  1  0
M  END
>  <Formula>  (780) 
C24H32O4S

>  <FW>  (780) 
416.5735

>  <DSSTox_CID>  (780) 
14186

>  <NR-Aromatase>  (780) 
1

>  <NR-AR>  (780) 
1

>  <NR-AR-LBD>  (780) 
1

>  <NR-ER>  (780) 
0

>  <NR-ER-LBD>  (780) 
0

>  <NR-AhR>  (780) 
0

>  <SR-HSE>  (780) 
0

>  <SR-p53>  (780) 
1

$$$$
NCGC00185756-01
     RDKit          2D

 35 36  0  0  1  0  0  0  0  0999 V2000
    7.0656   -4.1920    0.0000 Na  0  0  0  0  0 15  0  0  0  0  0  0
    8.4517   -4.1920    0.0000 Na  0  0  0  0  0 15  0  0  0  0  0  0
    8.3587   -0.0845    0.0000 O   0  0  0  0  0  0  0  0  0  0  0  0
    8.1897   -1.2086    0.0000 O   0  0  0  0  0  0  0  0  0  0  0  0
    7.0910    0.0000    0.0000 O   0  0  0  0  0  0  0  0  0  0  0  0
    7.5727   -0.7353    0.0000 P   0  0  0  0  0  0  0  0  0  0  0  0
    5.7302   -2.3749    0.0000 C   0  0  0  0  0  0  0  0  0  0  0  0
    5.7302   -3.1947    0.0000 C   0  0  0  0  0  0  0  0  0  0  0  0
    5.0203   -3.6004    0.0000 C   0  0  0  0  0  0  0  0  0  0  0  0
    0.7184   -4.4794    0.0000 C   0  0  0  0  0  0  0  0  0  0  0  0
    4.3019   -3.1947    0.0000 C   0  0  0  0  0  0  0  0  0  0  0  0
    3.5835   -3.6004    0.0000 C   0  0  0  0  0  0  0  0  0  0  0  0
    3.5835   -4.4794    0.0000 C   0  0  0  0  0  0  0  0  0  0  0  0
    5.0203   -1.9693    0.0000 C   0  0  0  0  0  0  0  0  0  0  0  0
    4.3019   -2.3749    0.0000 C   0  0  0  0  0  0  0  0  0  0  0  0
    1.4368   -4.8343    0.0000 O   0  0  0  0  0  0  0  0  0  0  0  0
    5.0203   -4.4794    0.0000 C   0  0  0  0  0  0  0  0  0  0  0  0
    6.5585   -3.4483    0.0000 C   0  0  0  0  0  0  0  0  0  0  0  0
    2.8651   -3.1947    0.0000 C   0  0  0  0  0  0  0  0  0  0  0  0
    0.7184   -3.6004    0.0000 N   0  0  0  0  0  0  0  0  0  0  0  0
    6.5585   -2.0706    0.0000 C   0  0  0  0  0  0  0  0  0  0  0  0
    0.0000   -4.8850    0.0000 O   0  0  0  0  0  0  0  0  0  0  0  0
    2.8651   -4.8343    0.0000 C   0  0  0  0  0  0  0  0  0  0  0  0
    2.1468   -4.4794    0.0000 C   0  0  0  0  0  0  0  0  0  0  0  0
    4.3019   -4.8343    0.0000 C   0  0  0  0  0  0  0  0  0  0  0  0
    7.0149   -2.7806    0.0000 C   0  0  0  0  0  0  0  0  0  0  0  0
    2.1468   -3.6004    0.0000 C   0  0  0  0  0  0  0  0  0  0  0  0
    5.7302   -1.5044    0.0000 C   0  0  0  0  0  0  0  0  0  0  0  0
    6.8120   -1.3015    0.0000 O   0  0  0  0  0  0  0  0  0  0  0  0
    0.7184   -1.9693    0.0000 Cl  0  0  0  0  0  0  0  0  0  0  0  0
    2.1468   -1.9185    0.0000 Cl  0  0  0  0  0  0  0  0  0  0  0  0
    1.4368   -3.1947    0.0000 C   0  0  0  0  0  0  0  0  0  0  0  0
    0.0000   -3.1947    0.0000 C   0  0  0  0  0  0  0  0  0  0  0  0
    1.4368   -2.3749    0.0000 C   0  0  0  0  0  0  0  0  0  0  0  0
    0.0000   -2.3749    0.0000 C   0  0  0  0  0  0  0  0  0  0  0  0
  3  6  1  0
  4  6  1  0
  5  6  2  0
  6 29  1  0
  7  8  1  0
  7 14  1  0
  7 21  1  0
  7 28  1  1
  8  9  1  0
  8 18  1  1
  9 17  1  6
  9 11  1  0
 10 16  1  0
 10 20  1  0
 10 22  2  0
 11 15  1  1
 11 12  1  0
 12 13  2  0
 12 19  1  0
 13 23  1  0
 13 25  1  0
 14 15  1  0
 16 24  1  0
 17 25  1  0
 18 26  1  0
 19 27  2  0
 20 32  1  0
 20 33  1  0
 21 26  1  0
 21 29  1  1
 23 24  2  0
 24 27  1  0
 30 35  1  0
 31 34  1  0
 32 34  1  0
 33 35  1  0
M  CHG  4   1   1   2   1   3  -1   4  -1
M  END
>  <Formula>  (781) 
C23H30Cl2NNa2O6P

>  <FW>  (781) 
564.3467 (22.9892+22.9892+518.3683)

>  <DSSTox_CID>  (781) 
28879

>  <NR-Aromatase>  (781) 
0

>  <NR-AR>  (781) 
1

>  <NR-ER>  (781) 
1

>  <NR-ER-LBD>  (781) 
1

>  <NR-PPAR-gamma>  (781) 
0

>  <NR-AhR>  (781) 
0

>  <SR-ATAD5>  (781) 
0

>  <SR-MMP>  (781) 
0

>  <SR-p53>  (781) 
1

$$$$
NCGC00184995-01
     RDKit          2D

 33 36  0  0  1  0  0  0  0  0999 V2000
    8.1667   -1.2500    0.0000 O   0  0  0  0  0  0  0  0  0  0  0  0
    8.3334   -0.0250    0.0000 O   0  0  0  0  0  0  0  0  0  0  0  0
    6.9417    0.0000    0.0000 O   0  0  0  0  0  0  0  0  0  0  0  0
    7.5334   -0.7416    0.0000 P   0  0  0  0  0  0  0  0  0  0  0  0
    5.7250   -2.5250    0.0000 C   0  0  0  0  0  0  0  0  0  0  0  0
    5.7250   -3.3500    0.0000 C   0  0  0  0  0  0  0  0  0  0  0  0
    5.0083   -3.7583    0.0000 C   0  0  0  0  0  0  0  0  0  0  0  0
    0.7583   -4.5833    0.0000 C   0  0  0  0  0  0  0  0  0  0  0  0
    4.2834   -3.3500    0.0000 C   0  0  0  0  0  0  0  0  0  0  0  0
    3.6083   -3.7583    0.0000 C   0  0  0  0  0  0  0  0  0  0  0  0
    3.6083   -4.5833    0.0000 C   0  0  0  0  0  0  0  0  0  0  0  0
    5.0083   -2.1167    0.0000 C   0  0  0  0  0  0  0  0  0  0  0  0
    4.2834   -2.5250    0.0000 C   0  0  0  0  0  0  0  0  0  0  0  0
    1.4416   -4.9917    0.0000 O   0  0  0  0  0  0  0  0  0  0  0  0
    5.0083   -4.5833    0.0000 C   0  0  0  0  0  0  0  0  0  0  0  0
    6.5167   -3.5834    0.0000 C   0  0  0  0  0  0  0  0  0  0  0  0
    2.8917   -3.3500    0.0000 C   0  0  0  0  0  0  0  0  0  0  0  0
    0.7583   -3.7583    0.0000 N   0  0  0  0  0  0  0  0  0  0  0  0
    6.5167   -2.2500    0.0000 C   0  0  0  0  0  0  0  0  0  0  0  0
    0.0000   -5.0250    0.0000 O   0  0  0  0  0  0  0  0  0  0  0  0
    2.8917   -4.9917    0.0000 C   0  0  0  0  0  0  0  0  0  0  0  0
    2.1583   -4.5833    0.0000 C   0  0  0  0  0  0  0  0  0  0  0  0
    4.2834   -4.9917    0.0000 C   0  0  0  0  0  0  0  0  0  0  0  0
    6.9917   -2.9333    0.0000 C   0  0  0  0  0  0  0  0  0  0  0  0
    2.1583   -3.7583    0.0000 C   0  0  0  0  0  0  0  0  0  0  0  0
    5.7250   -1.6667    0.0000 C   0  0  0  0  0  0  0  0  0  0  0  0
    6.7917   -1.4667    0.0000 O   0  0  0  0  0  0  0  0  0  0  0  0
    0.7583   -2.1167    0.0000 Cl  0  0  0  0  0  0  0  0  0  0  0  0
    2.1583   -2.0750    0.0000 Cl  0  0  0  0  0  0  0  0  0  0  0  0
    1.4416   -3.3500    0.0000 C   0  0  0  0  0  0  0  0  0  0  0  0
    0.0416   -3.3500    0.0000 C   0  0  0  0  0  0  0  0  0  0  0  0
    1.4416   -2.5250    0.0000 C   0  0  0  0  0  0  0  0  0  0  0  0
    0.0416   -2.5250    0.0000 C   0  0  0  0  0  0  0  0  0  0  0  0
  1  4  1  0
  2  4  1  0
  3  4  2  0
  4 27  1  0
  5  6  1  0
  5 12  1  0
  5 19  1  0
  5 26  1  1
  6  7  1  0
  6 16  1  1
  7 15  1  6
  7  9  1  0
  8 14  1  0
  8 18  1  0
  8 20  2  0
  9 13  1  1
  9 10  1  0
 10 11  2  0
 10 17  1  0
 11 21  1  0
 11 23  1  0
 12 13  1  0
 14 22  1  0
 15 23  1  0
 16 24  1  0
 17 25  2  0
 18 30  1  0
 18 31  1  0
 19 24  1  0
 19 27  1  1
 21 22  2  0
 22 25  1  0
 28 33  1  0
 29 32  1  0
 30 32  1  0
 31 33  1  0
M  END
>  <Formula>  (782) 
C23H32Cl2NO6P

>  <FW>  (782) 
520.3830

>  <DSSTox_CID>  (782) 
28593

>  <NR-Aromatase>  (782) 
0

>  <NR-AR>  (782) 
1

>  <NR-AR-LBD>  (782) 
0

>  <NR-ER>  (782) 
1

>  <NR-ER-LBD>  (782) 
1

>  <NR-AhR>  (782) 
0

>  <SR-ATAD5>  (782) 
0

>  <SR-MMP>  (782) 
0

>  <SR-p53>  (782) 
1

$$$$
NCGC00185756-01
     RDKit          2D

 35 36  0  0  1  0  0  0  0  0999 V2000
    7.0656   -4.1920    0.0000 Na  0  0  0  0  0 15  0  0  0  0  0  0
    8.4517   -4.1920    0.0000 Na  0  0  0  0  0 15  0  0  0  0  0  0
    8.3587   -0.0845    0.0000 O   0  0  0  0  0  0  0  0  0  0  0  0
    8.1897   -1.2086    0.0000 O   0  0  0  0  0  0  0  0  0  0  0  0
    7.0910    0.0000    0.0000 O   0  0  0  0  0  0  0  0  0  0  0  0
    7.5727   -0.7353    0.0000 P   0  0  0  0  0  0  0  0  0  0  0  0
    5.7302   -2.3749    0.0000 C   0  0  0  0  0  0  0  0  0  0  0  0
    5.7302   -3.1947    0.0000 C   0  0  0  0  0  0  0  0  0  0  0  0
    5.0203   -3.6004    0.0000 C   0  0  0  0  0  0  0  0  0  0  0  0
    0.7184   -4.4794    0.0000 C   0  0  0  0  0  0  0  0  0  0  0  0
    4.3019   -3.1947    0.0000 C   0  0  0  0  0  0  0  0  0  0  0  0
    3.5835   -3.6004    0.0000 C   0  0  0  0  0  0  0  0  0  0  0  0
    3.5835   -4.4794    0.0000 C   0  0  0  0  0  0  0  0  0  0  0  0
    5.0203   -1.9693    0.0000 C   0  0  0  0  0  0  0  0  0  0  0  0
    4.3019   -2.3749    0.0000 C   0  0  0  0  0  0  0  0  0  0  0  0
    1.4368   -4.8343    0.0000 O   0  0  0  0  0  0  0  0  0  0  0  0
    5.0203   -4.4794    0.0000 C   0  0  0  0  0  0  0  0  0  0  0  0
    6.5585   -3.4483    0.0000 C   0  0  0  0  0  0  0  0  0  0  0  0
    2.8651   -3.1947    0.0000 C   0  0  0  0  0  0  0  0  0  0  0  0
    0.7184   -3.6004    0.0000 N   0  0  0  0  0  0  0  0  0  0  0  0
    6.5585   -2.0706    0.0000 C   0  0  0  0  0  0  0  0  0  0  0  0
    0.0000   -4.8850    0.0000 O   0  0  0  0  0  0  0  0  0  0  0  0
    2.8651   -4.8343    0.0000 C   0  0  0  0  0  0  0  0  0  0  0  0
    2.1468   -4.4794    0.0000 C   0  0  0  0  0  0  0  0  0  0  0  0
    4.3019   -4.8343    0.0000 C   0  0  0  0  0  0  0  0  0  0  0  0
    7.0149   -2.7806    0.0000 C   0  0  0  0  0  0  0  0  0  0  0  0
    2.1468   -3.6004    0.0000 C   0  0  0  0  0  0  0  0  0  0  0  0
    5.7302   -1.5044    0.0000 C   0  0  0  0  0  0  0  0  0  0  0  0
    6.8120   -1.3015    0.0000 O   0  0  0  0  0  0  0  0  0  0  0  0
    0.7184   -1.9693    0.0000 Cl  0  0  0  0  0  0  0  0  0  0  0  0
    2.1468   -1.9185    0.0000 Cl  0  0  0  0  0  0  0  0  0  0  0  0
    1.4368   -3.1947    0.0000 C   0  0  0  0  0  0  0  0  0  0  0  0
    0.0000   -3.1947    0.0000 C   0  0  0  0  0  0  0  0  0  0  0  0
    1.4368   -2.3749    0.0000 C   0  0  0  0  0  0  0  0  0  0  0  0
    0.0000   -2.3749    0.0000 C   0  0  0  0  0  0  0  0  0  0  0  0
  3  6  1  0
  4  6  1  0
  5  6  2  0
  6 29  1  0
  7  8  1  0
  7 14  1  0
  7 21  1  0
  7 28  1  1
  8  9  1  0
  8 18  1  1
  9 17  1  6
  9 11  1  0
 10 16  1  0
 10 20  1  0
 10 22  2  0
 11 15  1  1
 11 12  1  0
 12 13  2  0
 12 19  1  0
 13 23  1  0
 13 25  1  0
 14 15  1  0
 16 24  1  0
 17 25  1  0
 18 26  1  0
 19 27  2  0
 20 32  1  0
 20 33  1  0
 21 26  1  0
 21 29  1  1
 23 24  2  0
 24 27  1  0
 30 35  1  0
 31 34  1  0
 32 34  1  0
 33 35  1  0
M  CHG  4   1   1   2   1   3  -1   4  -1
M  END
>  <Formula>  (783) 
C23H30Cl2NNa2O6P

>  <FW>  (783) 
564.3467 (22.9892+22.9892+518.3683)

>  <DSSTox_CID>  (783) 
28879

>  <NR-Aromatase>  (783) 
0

>  <NR-AR>  (783) 
1

>  <NR-ER>  (783) 
1

>  <NR-ER-LBD>  (783) 
1

>  <NR-PPAR-gamma>  (783) 
0

>  <NR-AhR>  (783) 
0

>  <SR-ATAD5>  (783) 
0

>  <SR-MMP>  (783) 
0

>  <SR-p53>  (783) 
1

$$$$
NCGC00184995-01
     RDKit          2D

 33 36  0  0  1  0  0  0  0  0999 V2000
    8.1667   -1.2500    0.0000 O   0  0  0  0  0  0  0  0  0  0  0  0
    8.3334   -0.0250    0.0000 O   0  0  0  0  0  0  0  0  0  0  0  0
    6.9417    0.0000    0.0000 O   0  0  0  0  0  0  0  0  0  0  0  0
    7.5334   -0.7416    0.0000 P   0  0  0  0  0  0  0  0  0  0  0  0
    5.7250   -2.5250    0.0000 C   0  0  0  0  0  0  0  0  0  0  0  0
    5.7250   -3.3500    0.0000 C   0  0  0  0  0  0  0  0  0  0  0  0
    5.0083   -3.7583    0.0000 C   0  0  0  0  0  0  0  0  0  0  0  0
    0.7583   -4.5833    0.0000 C   0  0  0  0  0  0  0  0  0  0  0  0
    4.2834   -3.3500    0.0000 C   0  0  0  0  0  0  0  0  0  0  0  0
    3.6083   -3.7583    0.0000 C   0  0  0  0  0  0  0  0  0  0  0  0
    3.6083   -4.5833    0.0000 C   0  0  0  0  0  0  0  0  0  0  0  0
    5.0083   -2.1167    0.0000 C   0  0  0  0  0  0  0  0  0  0  0  0
    4.2834   -2.5250    0.0000 C   0  0  0  0  0  0  0  0  0  0  0  0
    1.4416   -4.9917    0.0000 O   0  0  0  0  0  0  0  0  0  0  0  0
    5.0083   -4.5833    0.0000 C   0  0  0  0  0  0  0  0  0  0  0  0
    6.5167   -3.5834    0.0000 C   0  0  0  0  0  0  0  0  0  0  0  0
    2.8917   -3.3500    0.0000 C   0  0  0  0  0  0  0  0  0  0  0  0
    0.7583   -3.7583    0.0000 N   0  0  0  0  0  0  0  0  0  0  0  0
    6.5167   -2.2500    0.0000 C   0  0  0  0  0  0  0  0  0  0  0  0
    0.0000   -5.0250    0.0000 O   0  0  0  0  0  0  0  0  0  0  0  0
    2.8917   -4.9917    0.0000 C   0  0  0  0  0  0  0  0  0  0  0  0
    2.1583   -4.5833    0.0000 C   0  0  0  0  0  0  0  0  0  0  0  0
    4.2834   -4.9917    0.0000 C   0  0  0  0  0  0  0  0  0  0  0  0
    6.9917   -2.9333    0.0000 C   0  0  0  0  0  0  0  0  0  0  0  0
    2.1583   -3.7583    0.0000 C   0  0  0  0  0  0  0  0  0  0  0  0
    5.7250   -1.6667    0.0000 C   0  0  0  0  0  0  0  0  0  0  0  0
    6.7917   -1.4667    0.0000 O   0  0  0  0  0  0  0  0  0  0  0  0
    0.7583   -2.1167    0.0000 Cl  0  0  0  0  0  0  0  0  0  0  0  0
    2.1583   -2.0750    0.0000 Cl  0  0  0  0  0  0  0  0  0  0  0  0
    1.4416   -3.3500    0.0000 C   0  0  0  0  0  0  0  0  0  0  0  0
    0.0416   -3.3500    0.0000 C   0  0  0  0  0  0  0  0  0  0  0  0
    1.4416   -2.5250    0.0000 C   0  0  0  0  0  0  0  0  0  0  0  0
    0.0416   -2.5250    0.0000 C   0  0  0  0  0  0  0  0  0  0  0  0
  1  4  1  0
  2  4  1  0
  3  4  2  0
  4 27  1  0
  5  6  1  0
  5 12  1  0
  5 19  1  0
  5 26  1  1
  6  7  1  0
  6 16  1  1
  7 15  1  6
  7  9  1  0
  8 14  1  0
  8 18  1  0
  8 20  2  0
  9 13  1  1
  9 10  1  0
 10 11  2  0
 10 17  1  0
 11 21  1  0
 11 23  1  0
 12 13  1  0
 14 22  1  0
 15 23  1  0
 16 24  1  0
 17 25  2  0
 18 30  1  0
 18 31  1  0
 19 24  1  0
 19 27  1  1
 21 22  2  0
 22 25  1  0
 28 33  1  0
 29 32  1  0
 30 32  1  0
 31 33  1  0
M  END
>  <Formula>  (784) 
C23H32Cl2NO6P

>  <FW>  (784) 
520.3830

>  <DSSTox_CID>  (784) 
28593

>  <NR-Aromatase>  (784) 
0

>  <NR-AR>  (784) 
1

>  <NR-AR-LBD>  (784) 
0

>  <NR-ER>  (784) 
1

>  <NR-ER-LBD>  (784) 
1

>  <NR-AhR>  (784) 
0

>  <SR-ATAD5>  (784) 
0

>  <SR-MMP>  (784) 
0

>  <SR-p53>  (784) 
1

$$$$
NCGC00185756-01
     RDKit          2D

 35 36  0  0  1  0  0  0  0  0999 V2000
    7.0656   -4.1920    0.0000 Na  0  0  0  0  0 15  0  0  0  0  0  0
    8.4517   -4.1920    0.0000 Na  0  0  0  0  0 15  0  0  0  0  0  0
    8.3587   -0.0845    0.0000 O   0  0  0  0  0  0  0  0  0  0  0  0
    8.1897   -1.2086    0.0000 O   0  0  0  0  0  0  0  0  0  0  0  0
    7.0910    0.0000    0.0000 O   0  0  0  0  0  0  0  0  0  0  0  0
    7.5727   -0.7353    0.0000 P   0  0  0  0  0  0  0  0  0  0  0  0
    5.7302   -2.3749    0.0000 C   0  0  0  0  0  0  0  0  0  0  0  0
    5.7302   -3.1947    0.0000 C   0  0  0  0  0  0  0  0  0  0  0  0
    5.0203   -3.6004    0.0000 C   0  0  0  0  0  0  0  0  0  0  0  0
    0.7184   -4.4794    0.0000 C   0  0  0  0  0  0  0  0  0  0  0  0
    4.3019   -3.1947    0.0000 C   0  0  0  0  0  0  0  0  0  0  0  0
    3.5835   -3.6004    0.0000 C   0  0  0  0  0  0  0  0  0  0  0  0
    3.5835   -4.4794    0.0000 C   0  0  0  0  0  0  0  0  0  0  0  0
    5.0203   -1.9693    0.0000 C   0  0  0  0  0  0  0  0  0  0  0  0
    4.3019   -2.3749    0.0000 C   0  0  0  0  0  0  0  0  0  0  0  0
    1.4368   -4.8343    0.0000 O   0  0  0  0  0  0  0  0  0  0  0  0
    5.0203   -4.4794    0.0000 C   0  0  0  0  0  0  0  0  0  0  0  0
    6.5585   -3.4483    0.0000 C   0  0  0  0  0  0  0  0  0  0  0  0
    2.8651   -3.1947    0.0000 C   0  0  0  0  0  0  0  0  0  0  0  0
    0.7184   -3.6004    0.0000 N   0  0  0  0  0  0  0  0  0  0  0  0
    6.5585   -2.0706    0.0000 C   0  0  0  0  0  0  0  0  0  0  0  0
    0.0000   -4.8850    0.0000 O   0  0  0  0  0  0  0  0  0  0  0  0
    2.8651   -4.8343    0.0000 C   0  0  0  0  0  0  0  0  0  0  0  0
    2.1468   -4.4794    0.0000 C   0  0  0  0  0  0  0  0  0  0  0  0
    4.3019   -4.8343    0.0000 C   0  0  0  0  0  0  0  0  0  0  0  0
    7.0149   -2.7806    0.0000 C   0  0  0  0  0  0  0  0  0  0  0  0
    2.1468   -3.6004    0.0000 C   0  0  0  0  0  0  0  0  0  0  0  0
    5.7302   -1.5044    0.0000 C   0  0  0  0  0  0  0  0  0  0  0  0
    6.8120   -1.3015    0.0000 O   0  0  0  0  0  0  0  0  0  0  0  0
    0.7184   -1.9693    0.0000 Cl  0  0  0  0  0  0  0  0  0  0  0  0
    2.1468   -1.9185    0.0000 Cl  0  0  0  0  0  0  0  0  0  0  0  0
    1.4368   -3.1947    0.0000 C   0  0  0  0  0  0  0  0  0  0  0  0
    0.0000   -3.1947    0.0000 C   0  0  0  0  0  0  0  0  0  0  0  0
    1.4368   -2.3749    0.0000 C   0  0  0  0  0  0  0  0  0  0  0  0
    0.0000   -2.3749    0.0000 C   0  0  0  0  0  0  0  0  0  0  0  0
  3  6  1  0
  4  6  1  0
  5  6  2  0
  6 29  1  0
  7  8  1  0
  7 14  1  0
  7 21  1  0
  7 28  1  1
  8  9  1  0
  8 18  1  1
  9 17  1  6
  9 11  1  0
 10 16  1  0
 10 20  1  0
 10 22  2  0
 11 15  1  1
 11 12  1  0
 12 13  2  0
 12 19  1  0
 13 23  1  0
 13 25  1  0
 14 15  1  0
 16 24  1  0
 17 25  1  0
 18 26  1  0
 19 27  2  0
 20 32  1  0
 20 33  1  0
 21 26  1  0
 21 29  1  1
 23 24  2  0
 24 27  1  0
 30 35  1  0
 31 34  1  0
 32 34  1  0
 33 35  1  0
M  CHG  4   1   1   2   1   3  -1   4  -1
M  END
>  <Formula>  (785) 
C23H30Cl2NNa2O6P

>  <FW>  (785) 
564.3467 (22.9892+22.9892+518.3683)

>  <DSSTox_CID>  (785) 
28879

>  <NR-Aromatase>  (785) 
0

>  <NR-AR>  (785) 
1

>  <NR-ER>  (785) 
1

>  <NR-ER-LBD>  (785) 
1

>  <NR-PPAR-gamma>  (785) 
0

>  <NR-AhR>  (785) 
0

>  <SR-ATAD5>  (785) 
0

>  <SR-MMP>  (785) 
0

>  <SR-p53>  (785) 
1

$$$$
NCGC00184995-01
     RDKit          2D

 33 36  0  0  1  0  0  0  0  0999 V2000
    8.1667   -1.2500    0.0000 O   0  0  0  0  0  0  0  0  0  0  0  0
    8.3334   -0.0250    0.0000 O   0  0  0  0  0  0  0  0  0  0  0  0
    6.9417    0.0000    0.0000 O   0  0  0  0  0  0  0  0  0  0  0  0
    7.5334   -0.7416    0.0000 P   0  0  0  0  0  0  0  0  0  0  0  0
    5.7250   -2.5250    0.0000 C   0  0  0  0  0  0  0  0  0  0  0  0
    5.7250   -3.3500    0.0000 C   0  0  0  0  0  0  0  0  0  0  0  0
    5.0083   -3.7583    0.0000 C   0  0  0  0  0  0  0  0  0  0  0  0
    0.7583   -4.5833    0.0000 C   0  0  0  0  0  0  0  0  0  0  0  0
    4.2834   -3.3500    0.0000 C   0  0  0  0  0  0  0  0  0  0  0  0
    3.6083   -3.7583    0.0000 C   0  0  0  0  0  0  0  0  0  0  0  0
    3.6083   -4.5833    0.0000 C   0  0  0  0  0  0  0  0  0  0  0  0
    5.0083   -2.1167    0.0000 C   0  0  0  0  0  0  0  0  0  0  0  0
    4.2834   -2.5250    0.0000 C   0  0  0  0  0  0  0  0  0  0  0  0
    1.4416   -4.9917    0.0000 O   0  0  0  0  0  0  0  0  0  0  0  0
    5.0083   -4.5833    0.0000 C   0  0  0  0  0  0  0  0  0  0  0  0
    6.5167   -3.5834    0.0000 C   0  0  0  0  0  0  0  0  0  0  0  0
    2.8917   -3.3500    0.0000 C   0  0  0  0  0  0  0  0  0  0  0  0
    0.7583   -3.7583    0.0000 N   0  0  0  0  0  0  0  0  0  0  0  0
    6.5167   -2.2500    0.0000 C   0  0  0  0  0  0  0  0  0  0  0  0
    0.0000   -5.0250    0.0000 O   0  0  0  0  0  0  0  0  0  0  0  0
    2.8917   -4.9917    0.0000 C   0  0  0  0  0  0  0  0  0  0  0  0
    2.1583   -4.5833    0.0000 C   0  0  0  0  0  0  0  0  0  0  0  0
    4.2834   -4.9917    0.0000 C   0  0  0  0  0  0  0  0  0  0  0  0
    6.9917   -2.9333    0.0000 C   0  0  0  0  0  0  0  0  0  0  0  0
    2.1583   -3.7583    0.0000 C   0  0  0  0  0  0  0  0  0  0  0  0
    5.7250   -1.6667    0.0000 C   0  0  0  0  0  0  0  0  0  0  0  0
    6.7917   -1.4667    0.0000 O   0  0  0  0  0  0  0  0  0  0  0  0
    0.7583   -2.1167    0.0000 Cl  0  0  0  0  0  0  0  0  0  0  0  0
    2.1583   -2.0750    0.0000 Cl  0  0  0  0  0  0  0  0  0  0  0  0
    1.4416   -3.3500    0.0000 C   0  0  0  0  0  0  0  0  0  0  0  0
    0.0416   -3.3500    0.0000 C   0  0  0  0  0  0  0  0  0  0  0  0
    1.4416   -2.5250    0.0000 C   0  0  0  0  0  0  0  0  0  0  0  0
    0.0416   -2.5250    0.0000 C   0  0  0  0  0  0  0  0  0  0  0  0
  1  4  1  0
  2  4  1  0
  3  4  2  0
  4 27  1  0
  5  6  1  0
  5 12  1  0
  5 19  1  0
  5 26  1  1
  6  7  1  0
  6 16  1  1
  7 15  1  6
  7  9  1  0
  8 14  1  0
  8 18  1  0
  8 20  2  0
  9 13  1  1
  9 10  1  0
 10 11  2  0
 10 17  1  0
 11 21  1  0
 11 23  1  0
 12 13  1  0
 14 22  1  0
 15 23  1  0
 16 24  1  0
 17 25  2  0
 18 30  1  0
 18 31  1  0
 19 24  1  0
 19 27  1  1
 21 22  2  0
 22 25  1  0
 28 33  1  0
 29 32  1  0
 30 32  1  0
 31 33  1  0
M  END
>  <Formula>  (786) 
C23H32Cl2NO6P

>  <FW>  (786) 
520.3830

>  <DSSTox_CID>  (786) 
28593

>  <NR-Aromatase>  (786) 
0

>  <NR-AR>  (786) 
1

>  <NR-AR-LBD>  (786) 
0

>  <NR-ER>  (786) 
1

>  <NR-ER-LBD>  (786) 
1

>  <NR-AhR>  (786) 
0

>  <SR-ATAD5>  (786) 
0

>  <SR-MMP>  (786) 
0

>  <SR-p53>  (786) 
1

$$$$
NCGC00185756-01
     RDKit          2D

 35 36  0  0  1  0  0  0  0  0999 V2000
    7.0656   -4.1920    0.0000 Na  0  0  0  0  0 15  0  0  0  0  0  0
    8.4517   -4.1920    0.0000 Na  0  0  0  0  0 15  0  0  0  0  0  0
    8.3587   -0.0845    0.0000 O   0  0  0  0  0  0  0  0  0  0  0  0
    8.1897   -1.2086    0.0000 O   0  0  0  0  0  0  0  0  0  0  0  0
    7.0910    0.0000    0.0000 O   0  0  0  0  0  0  0  0  0  0  0  0
    7.5727   -0.7353    0.0000 P   0  0  0  0  0  0  0  0  0  0  0  0
    5.7302   -2.3749    0.0000 C   0  0  0  0  0  0  0  0  0  0  0  0
    5.7302   -3.1947    0.0000 C   0  0  0  0  0  0  0  0  0  0  0  0
    5.0203   -3.6004    0.0000 C   0  0  0  0  0  0  0  0  0  0  0  0
    0.7184   -4.4794    0.0000 C   0  0  0  0  0  0  0  0  0  0  0  0
    4.3019   -3.1947    0.0000 C   0  0  0  0  0  0  0  0  0  0  0  0
    3.5835   -3.6004    0.0000 C   0  0  0  0  0  0  0  0  0  0  0  0
    3.5835   -4.4794    0.0000 C   0  0  0  0  0  0  0  0  0  0  0  0
    5.0203   -1.9693    0.0000 C   0  0  0  0  0  0  0  0  0  0  0  0
    4.3019   -2.3749    0.0000 C   0  0  0  0  0  0  0  0  0  0  0  0
    1.4368   -4.8343    0.0000 O   0  0  0  0  0  0  0  0  0  0  0  0
    5.0203   -4.4794    0.0000 C   0  0  0  0  0  0  0  0  0  0  0  0
    6.5585   -3.4483    0.0000 C   0  0  0  0  0  0  0  0  0  0  0  0
    2.8651   -3.1947    0.0000 C   0  0  0  0  0  0  0  0  0  0  0  0
    0.7184   -3.6004    0.0000 N   0  0  0  0  0  0  0  0  0  0  0  0
    6.5585   -2.0706    0.0000 C   0  0  0  0  0  0  0  0  0  0  0  0
    0.0000   -4.8850    0.0000 O   0  0  0  0  0  0  0  0  0  0  0  0
    2.8651   -4.8343    0.0000 C   0  0  0  0  0  0  0  0  0  0  0  0
    2.1468   -4.4794    0.0000 C   0  0  0  0  0  0  0  0  0  0  0  0
    4.3019   -4.8343    0.0000 C   0  0  0  0  0  0  0  0  0  0  0  0
    7.0149   -2.7806    0.0000 C   0  0  0  0  0  0  0  0  0  0  0  0
    2.1468   -3.6004    0.0000 C   0  0  0  0  0  0  0  0  0  0  0  0
    5.7302   -1.5044    0.0000 C   0  0  0  0  0  0  0  0  0  0  0  0
    6.8120   -1.3015    0.0000 O   0  0  0  0  0  0  0  0  0  0  0  0
    0.7184   -1.9693    0.0000 Cl  0  0  0  0  0  0  0  0  0  0  0  0
    2.1468   -1.9185    0.0000 Cl  0  0  0  0  0  0  0  0  0  0  0  0
    1.4368   -3.1947    0.0000 C   0  0  0  0  0  0  0  0  0  0  0  0
    0.0000   -3.1947    0.0000 C   0  0  0  0  0  0  0  0  0  0  0  0
    1.4368   -2.3749    0.0000 C   0  0  0  0  0  0  0  0  0  0  0  0
    0.0000   -2.3749    0.0000 C   0  0  0  0  0  0  0  0  0  0  0  0
  3  6  1  0
  4  6  1  0
  5  6  2  0
  6 29  1  0
  7  8  1  0
  7 14  1  0
  7 21  1  0
  7 28  1  1
  8  9  1  0
  8 18  1  1
  9 17  1  6
  9 11  1  0
 10 16  1  0
 10 20  1  0
 10 22  2  0
 11 15  1  1
 11 12  1  0
 12 13  2  0
 12 19  1  0
 13 23  1  0
 13 25  1  0
 14 15  1  0
 16 24  1  0
 17 25  1  0
 18 26  1  0
 19 27  2  0
 20 32  1  0
 20 33  1  0
 21 26  1  0
 21 29  1  1
 23 24  2  0
 24 27  1  0
 30 35  1  0
 31 34  1  0
 32 34  1  0
 33 35  1  0
M  CHG  4   1   1   2   1   3  -1   4  -1
M  END
>  <Formula>  (787) 
C23H30Cl2NNa2O6P

>  <FW>  (787) 
564.3467 (22.9892+22.9892+518.3683)

>  <DSSTox_CID>  (787) 
28879

>  <NR-Aromatase>  (787) 
0

>  <NR-AR>  (787) 
1

>  <NR-ER>  (787) 
1

>  <NR-ER-LBD>  (787) 
1

>  <NR-PPAR-gamma>  (787) 
0

>  <NR-AhR>  (787) 
0

>  <SR-ATAD5>  (787) 
0

>  <SR-MMP>  (787) 
0

>  <SR-p53>  (787) 
1

$$$$
NCGC00184995-01
     RDKit          2D

 33 36  0  0  1  0  0  0  0  0999 V2000
    8.1667   -1.2500    0.0000 O   0  0  0  0  0  0  0  0  0  0  0  0
    8.3334   -0.0250    0.0000 O   0  0  0  0  0  0  0  0  0  0  0  0
    6.9417    0.0000    0.0000 O   0  0  0  0  0  0  0  0  0  0  0  0
    7.5334   -0.7416    0.0000 P   0  0  0  0  0  0  0  0  0  0  0  0
    5.7250   -2.5250    0.0000 C   0  0  0  0  0  0  0  0  0  0  0  0
    5.7250   -3.3500    0.0000 C   0  0  0  0  0  0  0  0  0  0  0  0
    5.0083   -3.7583    0.0000 C   0  0  0  0  0  0  0  0  0  0  0  0
    0.7583   -4.5833    0.0000 C   0  0  0  0  0  0  0  0  0  0  0  0
    4.2834   -3.3500    0.0000 C   0  0  0  0  0  0  0  0  0  0  0  0
    3.6083   -3.7583    0.0000 C   0  0  0  0  0  0  0  0  0  0  0  0
    3.6083   -4.5833    0.0000 C   0  0  0  0  0  0  0  0  0  0  0  0
    5.0083   -2.1167    0.0000 C   0  0  0  0  0  0  0  0  0  0  0  0
    4.2834   -2.5250    0.0000 C   0  0  0  0  0  0  0  0  0  0  0  0
    1.4416   -4.9917    0.0000 O   0  0  0  0  0  0  0  0  0  0  0  0
    5.0083   -4.5833    0.0000 C   0  0  0  0  0  0  0  0  0  0  0  0
    6.5167   -3.5834    0.0000 C   0  0  0  0  0  0  0  0  0  0  0  0
    2.8917   -3.3500    0.0000 C   0  0  0  0  0  0  0  0  0  0  0  0
    0.7583   -3.7583    0.0000 N   0  0  0  0  0  0  0  0  0  0  0  0
    6.5167   -2.2500    0.0000 C   0  0  0  0  0  0  0  0  0  0  0  0
    0.0000   -5.0250    0.0000 O   0  0  0  0  0  0  0  0  0  0  0  0
    2.8917   -4.9917    0.0000 C   0  0  0  0  0  0  0  0  0  0  0  0
    2.1583   -4.5833    0.0000 C   0  0  0  0  0  0  0  0  0  0  0  0
    4.2834   -4.9917    0.0000 C   0  0  0  0  0  0  0  0  0  0  0  0
    6.9917   -2.9333    0.0000 C   0  0  0  0  0  0  0  0  0  0  0  0
    2.1583   -3.7583    0.0000 C   0  0  0  0  0  0  0  0  0  0  0  0
    5.7250   -1.6667    0.0000 C   0  0  0  0  0  0  0  0  0  0  0  0
    6.7917   -1.4667    0.0000 O   0  0  0  0  0  0  0  0  0  0  0  0
    0.7583   -2.1167    0.0000 Cl  0  0  0  0  0  0  0  0  0  0  0  0
    2.1583   -2.0750    0.0000 Cl  0  0  0  0  0  0  0  0  0  0  0  0
    1.4416   -3.3500    0.0000 C   0  0  0  0  0  0  0  0  0  0  0  0
    0.0416   -3.3500    0.0000 C   0  0  0  0  0  0  0  0  0  0  0  0
    1.4416   -2.5250    0.0000 C   0  0  0  0  0  0  0  0  0  0  0  0
    0.0416   -2.5250    0.0000 C   0  0  0  0  0  0  0  0  0  0  0  0
  1  4  1  0
  2  4  1  0
  3  4  2  0
  4 27  1  0
  5  6  1  0
  5 12  1  0
  5 19  1  0
  5 26  1  1
  6  7  1  0
  6 16  1  1
  7 15  1  6
  7  9  1  0
  8 14  1  0
  8 18  1  0
  8 20  2  0
  9 13  1  1
  9 10  1  0
 10 11  2  0
 10 17  1  0
 11 21  1  0
 11 23  1  0
 12 13  1  0
 14 22  1  0
 15 23  1  0
 16 24  1  0
 17 25  2  0
 18 30  1  0
 18 31  1  0
 19 24  1  0
 19 27  1  1
 21 22  2  0
 22 25  1  0
 28 33  1  0
 29 32  1  0
 30 32  1  0
 31 33  1  0
M  END
>  <Formula>  (788) 
C23H32Cl2NO6P

>  <FW>  (788) 
520.3830

>  <DSSTox_CID>  (788) 
28593

>  <NR-Aromatase>  (788) 
0

>  <NR-AR>  (788) 
1

>  <NR-AR-LBD>  (788) 
0

>  <NR-ER>  (788) 
1

>  <NR-ER-LBD>  (788) 
1

>  <NR-AhR>  (788) 
0

>  <SR-ATAD5>  (788) 
0

>  <SR-MMP>  (788) 
0

>  <SR-p53>  (788) 
1

$$$$
